McPAT (version 1.3 of Feb, 2015) is computing the target processor...
 

McPAT (version 1.3 of Feb, 2015) results (current print level is 2, please increase print level to see the details in components): 
*****************************************************************************************
  Technology 22 nm
  Using Long Channel Devices When Appropriate
  Interconnect metal projection= aggressive interconnect technology projection
  Core clock Rate(MHz) 2100

*****************************************************************************************
Processor: 
  Area = 44.9277 mm^2
  Peak Power = 41.7757 W
  Total Leakage = 0.782261 W
  Peak Dynamic = 40.9935 W
  Subthreshold Leakage = 0.767489 W
  Gate Leakage = 0.014772 W
  Runtime Dynamic = 0.616025 W

  Total Cores: 1 cores 
  Device Type= ITRS high performance device type
    Area = 29.1158 mm^2
    Peak Dynamic = 36.7065 W
    Subthreshold Leakage = 0.381317 W
    Gate Leakage = 0.00645322 W
    Runtime Dynamic = 0.239287 W

  Total L3s: 
  Device Type= ITRS high performance device type
    Area = 12.6384 mm^2
    Peak Dynamic = 0.475714 W
    Subthreshold Leakage = 0.320863 W
    Gate Leakage = 0.00658576 W
    Runtime Dynamic = 0 W

  Total First Level Directory: 
  Device Type= ITRS high performance device type
    Area = 0.0981263 mm^2
    Peak Dynamic = 0 W
    Subthreshold Leakage = 0.00271355 W
    Gate Leakage = 0.000105986 W
    Runtime Dynamic = 0.000480388 W

  Total Second Level Directory: 
  Device Type= ITRS high performance device type
    Area = 2.44768 mm^2
    Peak Dynamic = 0 W
    Subthreshold Leakage = 0.0590133 W
    Gate Leakage = 0.0014502 W
    Runtime Dynamic = 2.52858e-05 W

  Total NoCs (Network/Bus): 
  Device Type= ITRS high performance device type
    Area = 0.0424906 mm^2
    Peak Dynamic = 0.0527201 W
    Subthreshold Leakage = 0.00138002 W
    Gate Leakage = 3.8176e-05 W
    Runtime Dynamic = 9.64879e-05 W

  Total MCs: 1 Memory Controllers 
  Device Type= ITRS high performance device type
    Area = 0.585266 mm^2
    Peak Dynamic = 3.75856 W
    Subthreshold Leakage = 0.00220167 W
    Gate Leakage = 0.000138626 W
    Runtime Dynamic = 0.376136 W

*****************************************************************************************
Core:
      Area = 29.1158 mm^2
      Peak Dynamic = 36.7065 W
      Subthreshold Leakage = 0.381317 W
      Gate Leakage = 0.00645322 W
      Runtime Dynamic = 0.239287 W

      Instruction Fetch Unit:
        Area = 20.8889 mm^2
        Peak Dynamic = 25.2895 W
        Subthreshold Leakage = 0.233329 W
        Gate Leakage = 0.00379783 W
        Runtime Dynamic = 0.105894 W

      Renaming Unit:
        Area = 0.0250063 mm^2
        Peak Dynamic = 0.113093 W
        Subthreshold Leakage = 0.000462232 W
        Gate Leakage = 1.69004e-05 W
        Runtime Dynamic = 0.0153873 W

      Load Store Unit:
        Area = 1.1768 mm^2
        Peak Dynamic = 2.85095 W
        Subthreshold Leakage = 0.0710627 W
        Gate Leakage = 0.00133078 W
        Runtime Dynamic = 0 W

      Memory Management Unit:
        Area = 0.0210291 mm^2
        Peak Dynamic = 0.0219391 W
        Subthreshold Leakage = 0.00118839 W
        Runtime Dynamic = 0 W

      Execution Unit:
        Area = 6.27871 mm^2
        Peak Dynamic = 7.70233 W
        Subthreshold Leakage = 0.0399896 W
        Runtime Dynamic = 0.118007 W

    L2
    Area = 0.675929 mm^2
    Peak Dynamic = 0.728606 W
    Subthreshold Leakage = 0.0331765 W
    Gate Leakage = 0.000477307 W
    Runtime Dynamic = 0 W

*****************************************************************************************
      L3
      Area = 12.6384 mm^2
      Peak Dynamic = 0.475714 W
      Subthreshold Leakage = 0.320863 W
      Gate Leakage = 0.00658576 W
      Runtime Dynamic = 0 W

*****************************************************************************************
      First Level Directory
      Area = 0.0981263 mm^2
      Peak Dynamic = 0 W
      Subthreshold Leakage = 0.00271355 W
      Gate Leakage = 0.000105986 W
      Runtime Dynamic = 0.000480388 W

*****************************************************************************************
      Second Level Directory
      Area = 2.44768 mm^2
      Peak Dynamic = 0 W
      Subthreshold Leakage = 0.0590133 W
      Gate Leakage = 0.0014502 W
      Runtime Dynamic = 2.52858e-05 W

*****************************************************************************************
Memory Controller:
      Area = 0.585266 mm^2
      Peak Dynamic = 3.75856 W
      Subthreshold Leakage = 0.00220167 W
      Gate Leakage = 0.000138626 W
      Runtime Dynamic = 0.376136 W

      Front End Engine:
        Area = 0.0282043 mm^2
        Peak Dynamic = 0.0946396 W
        Subthreshold Leakage = 0.000430877 W
        Gate Leakage = 1.09532e-05 W
        Runtime Dynamic = 0.00947002 W

      Transaction Engine:
        Area = 0.0343669 mm^2
        Peak Dynamic = 3.55267 W
        Subthreshold Leakage = 0.000354159 W
        Gate Leakage = 2.55346e-05 W
        Runtime Dynamic = 0.355498 W

      PHY:
        Area = 0.522694 mm^2
        Peak Dynamic = 0.111249 W
        Subthreshold Leakage = 0.00141664 W
        Gate Leakage = 0.000102138 W
        Runtime Dynamic = 0.0111676 W

*****************************************************************************************
BUSES
      Area = 0.0424906 mm^2
      Peak Dynamic = 0.0527201 W
      Subthreshold Leakage = 0.00138002 W
      Gate Leakage = 3.8176e-05 W
      Runtime Dynamic = 9.64879e-05 W

      Bus: 
        Area = 0.0424906 mm^2
        Peak Dynamic = 0.0527201 W
        Subthreshold Leakage = 0.00138002 W
        Gate Leakage = 3.8176e-05 W
        Runtime Dynamic = 9.64879e-05 W

*****************************************************************************************
