McPAT (version 1.3 of Feb, 2015) is computing the target processor...
 

McPAT (version 1.3 of Feb, 2015) results (current print level is 2, please increase print level to see the details in components): 
*****************************************************************************************
  Technology 22 nm
  Using Long Channel Devices When Appropriate
  Interconnect metal projection= aggressive interconnect technology projection
  Core clock Rate(MHz) 2100

*****************************************************************************************
Processor: 
  Area = 34.5432 mm^2
  Peak Power = 41.9568 W
  Total Leakage = 0.504916 W
  Peak Dynamic = 41.4518 W
  Subthreshold Leakage = 0.495528 W
  Gate Leakage = 0.00938839 W
  Runtime Dynamic = 0.662149 W

  Total Cores: 1 cores 
  Device Type= ITRS high performance device type
    Area = 29.1449 mm^2
    Peak Dynamic = 37.3205 W
    Subthreshold Leakage = 0.38148 W
    Gate Leakage = 0.00645857 W
    Runtime Dynamic = 0.284719 W

  Total L3s: 
  Device Type= ITRS high performance device type
    Area = 2.22999 mm^2
    Peak Dynamic = 0.326577 W
    Subthreshold Leakage = 0.0489095 W
    Gate Leakage = 0.00120153 W
    Runtime Dynamic = 0 W

  Total First Level Directory: 
  Device Type= ITRS high performance device type
    Area = 0.0981263 mm^2
    Peak Dynamic = 0 W
    Subthreshold Leakage = 0.00271355 W
    Gate Leakage = 0.000105986 W
    Runtime Dynamic = 0.000480302 W

  Total Second Level Directory: 
  Device Type= ITRS high performance device type
    Area = 2.44768 mm^2
    Peak Dynamic = 0 W
    Subthreshold Leakage = 0.0590133 W
    Gate Leakage = 0.0014502 W
    Runtime Dynamic = 2.52813e-05 W

  Total NoCs (Network/Bus): 
  Device Type= ITRS high performance device type
    Area = 0.0372553 mm^2
    Peak Dynamic = 0.0462245 W
    Subthreshold Leakage = 0.00120999 W
    Gate Leakage = 3.34723e-05 W
    Runtime Dynamic = 8.45845e-05 W

  Total MCs: 1 Memory Controllers 
  Device Type= ITRS high performance device type
    Area = 0.585266 mm^2
    Peak Dynamic = 3.75856 W
    Subthreshold Leakage = 0.00220167 W
    Gate Leakage = 0.000138626 W
    Runtime Dynamic = 0.37684 W

*****************************************************************************************
Core:
      Area = 29.1449 mm^2
      Peak Dynamic = 37.3205 W
      Subthreshold Leakage = 0.38148 W
      Gate Leakage = 0.00645857 W
      Runtime Dynamic = 0.284719 W

      Instruction Fetch Unit:
        Area = 20.8919 mm^2
        Peak Dynamic = 25.3493 W
        Subthreshold Leakage = 0.233347 W
        Gate Leakage = 0.00379873 W
        Runtime Dynamic = 0.106416 W

      Renaming Unit:
        Area = 0.0503313 mm^2
        Peak Dynamic = 0.665622 W
        Subthreshold Leakage = 0.000556202 W
        Gate Leakage = 1.86451e-05 W
        Runtime Dynamic = 0.0602066 W

      Load Store Unit:
        Area = 1.17706 mm^2
        Peak Dynamic = 2.85149 W
        Subthreshold Leakage = 0.0710798 W
        Gate Leakage = 0.00133169 W
        Runtime Dynamic = 0 W

      Memory Management Unit:
        Area = 0.0212818 mm^2
        Peak Dynamic = 0.0225948 W
        Subthreshold Leakage = 0.00120553 W
        Runtime Dynamic = 0 W

      Execution Unit:
        Area = 6.27896 mm^2
        Peak Dynamic = 7.70291 W
        Subthreshold Leakage = 0.0400068 W
        Runtime Dynamic = 0.118096 W

    L2
    Area = 0.675929 mm^2
    Peak Dynamic = 0.728606 W
    Subthreshold Leakage = 0.0331765 W
    Gate Leakage = 0.000477307 W
    Runtime Dynamic = 0 W

*****************************************************************************************
      L3
      Area = 2.22999 mm^2
      Peak Dynamic = 0.326577 W
      Subthreshold Leakage = 0.0489095 W
      Gate Leakage = 0.00120153 W
      Runtime Dynamic = 0 W

*****************************************************************************************
      First Level Directory
      Area = 0.0981263 mm^2
      Peak Dynamic = 0 W
      Subthreshold Leakage = 0.00271355 W
      Gate Leakage = 0.000105986 W
      Runtime Dynamic = 0.000480302 W

*****************************************************************************************
      Second Level Directory
      Area = 2.44768 mm^2
      Peak Dynamic = 0 W
      Subthreshold Leakage = 0.0590133 W
      Gate Leakage = 0.0014502 W
      Runtime Dynamic = 2.52813e-05 W

*****************************************************************************************
Memory Controller:
      Area = 0.585266 mm^2
      Peak Dynamic = 3.75856 W
      Subthreshold Leakage = 0.00220167 W
      Gate Leakage = 0.000138626 W
      Runtime Dynamic = 0.37684 W

      Front End Engine:
        Area = 0.0282043 mm^2
        Peak Dynamic = 0.0946396 W
        Subthreshold Leakage = 0.000430877 W
        Gate Leakage = 1.09532e-05 W
        Runtime Dynamic = 0.00948572 W

      Transaction Engine:
        Area = 0.0343669 mm^2
        Peak Dynamic = 3.55267 W
        Subthreshold Leakage = 0.000354159 W
        Gate Leakage = 2.55346e-05 W
        Runtime Dynamic = 0.35608 W

      PHY:
        Area = 0.522694 mm^2
        Peak Dynamic = 0.111249 W
        Subthreshold Leakage = 0.00141664 W
        Gate Leakage = 0.000102138 W
        Runtime Dynamic = 0.0112752 W

*****************************************************************************************
BUSES
      Area = 0.0372553 mm^2
      Peak Dynamic = 0.0462245 W
      Subthreshold Leakage = 0.00120999 W
      Gate Leakage = 3.34723e-05 W
      Runtime Dynamic = 8.45845e-05 W

      Bus: 
        Area = 0.0372553 mm^2
        Peak Dynamic = 0.0462245 W
        Subthreshold Leakage = 0.00120999 W
        Gate Leakage = 3.34723e-05 W
        Runtime Dynamic = 8.45845e-05 W

*****************************************************************************************
