McPAT (version 1.3 of Feb, 2015) is computing the target processor...
 

McPAT (version 1.3 of Feb, 2015) results (current print level is 2, please increase print level to see the details in components): 
*****************************************************************************************
  Technology 22 nm
  Using Long Channel Devices When Appropriate
  Interconnect metal projection= aggressive interconnect technology projection
  Core clock Rate(MHz) 2100

*****************************************************************************************
Processor: 
  Area = 46.3771 mm^2
  Peak Power = 41.8072 W
  Total Leakage = 0.84189 W
  Peak Dynamic = 40.9653 W
  Subthreshold Leakage = 0.826497 W
  Gate Leakage = 0.0153932 W
  Runtime Dynamic = 0.632039 W

  Total Cores: 1 cores 
  Device Type= ITRS high performance device type
    Area = 30.5645 mm^2
    Peak Dynamic = 36.6774 W
    Subthreshold Leakage = 0.440303 W
    Gate Leakage = 0.00707389 W
    Runtime Dynamic = 0.255534 W

  Total L3s: 
  Device Type= ITRS high performance device type
    Area = 12.6384 mm^2
    Peak Dynamic = 0.475714 W
    Subthreshold Leakage = 0.320863 W
    Gate Leakage = 0.00658576 W
    Runtime Dynamic = 0 W

  Total First Level Directory: 
  Device Type= ITRS high performance device type
    Area = 0.0981263 mm^2
    Peak Dynamic = 0 W
    Subthreshold Leakage = 0.00271355 W
    Gate Leakage = 0.000105986 W
    Runtime Dynamic = 0.000408286 W

  Total Second Level Directory: 
  Device Type= ITRS high performance device type
    Area = 2.44768 mm^2
    Peak Dynamic = 0 W
    Subthreshold Leakage = 0.0590133 W
    Gate Leakage = 0.0014502 W
    Runtime Dynamic = 2.14907e-05 W

  Total NoCs (Network/Bus): 
  Device Type= ITRS high performance device type
    Area = 0.0431708 mm^2
    Peak Dynamic = 0.0535642 W
    Subthreshold Leakage = 0.00140212 W
    Gate Leakage = 3.87872e-05 W
    Runtime Dynamic = 8.3319e-05 W

  Total MCs: 1 Memory Controllers 
  Device Type= ITRS high performance device type
    Area = 0.585266 mm^2
    Peak Dynamic = 3.75856 W
    Subthreshold Leakage = 0.00220167 W
    Gate Leakage = 0.000138626 W
    Runtime Dynamic = 0.375992 W

*****************************************************************************************
Core:
      Area = 30.5645 mm^2
      Peak Dynamic = 36.6774 W
      Subthreshold Leakage = 0.440303 W
      Gate Leakage = 0.00707389 W
      Runtime Dynamic = 0.255534 W

      Instruction Fetch Unit:
        Area = 20.8866 mm^2
        Peak Dynamic = 25.2448 W
        Subthreshold Leakage = 0.233316 W
        Gate Leakage = 0.00379715 W
        Runtime Dynamic = 0.123185 W

      Renaming Unit:
        Area = 0.0144866 mm^2
        Peak Dynamic = 0.0191685 W
        Subthreshold Leakage = 0.000398119 W
        Gate Leakage = 1.55993e-05 W
        Runtime Dynamic = 0.00320462 W

      Load Store Unit:
        Area = 1.17661 mm^2
        Peak Dynamic = 2.85054 W
        Subthreshold Leakage = 0.0710498 W
        Gate Leakage = 0.00133011 W
        Runtime Dynamic = 0 W

      Memory Management Unit:
        Area = 0.0208396 mm^2
        Peak Dynamic = 0.0214473 W
        Subthreshold Leakage = 0.00117553 W
        Runtime Dynamic = 0 W

      Execution Unit:
        Area = 6.27852 mm^2
        Peak Dynamic = 7.70189 W
        Subthreshold Leakage = 0.0399768 W
        Runtime Dynamic = 0.129144 W

    L2
    Area = 2.13798 mm^2
    Peak Dynamic = 0.839634 W
    Subthreshold Leakage = 0.0922782 W
    Gate Leakage = 0.00110198 W
    Runtime Dynamic = 0 W

*****************************************************************************************
      L3
      Area = 12.6384 mm^2
      Peak Dynamic = 0.475714 W
      Subthreshold Leakage = 0.320863 W
      Gate Leakage = 0.00658576 W
      Runtime Dynamic = 0 W

*****************************************************************************************
      First Level Directory
      Area = 0.0981263 mm^2
      Peak Dynamic = 0 W
      Subthreshold Leakage = 0.00271355 W
      Gate Leakage = 0.000105986 W
      Runtime Dynamic = 0.000408286 W

*****************************************************************************************
      Second Level Directory
      Area = 2.44768 mm^2
      Peak Dynamic = 0 W
      Subthreshold Leakage = 0.0590133 W
      Gate Leakage = 0.0014502 W
      Runtime Dynamic = 2.14907e-05 W

*****************************************************************************************
Memory Controller:
      Area = 0.585266 mm^2
      Peak Dynamic = 3.75856 W
      Subthreshold Leakage = 0.00220167 W
      Gate Leakage = 0.000138626 W
      Runtime Dynamic = 0.375992 W

      Front End Engine:
        Area = 0.0282043 mm^2
        Peak Dynamic = 0.0946396 W
        Subthreshold Leakage = 0.000430877 W
        Gate Leakage = 1.09532e-05 W
        Runtime Dynamic = 0.00946691 W

      Transaction Engine:
        Area = 0.0343669 mm^2
        Peak Dynamic = 3.55267 W
        Subthreshold Leakage = 0.000354159 W
        Gate Leakage = 2.55346e-05 W
        Runtime Dynamic = 0.35538 W

      PHY:
        Area = 0.522694 mm^2
        Peak Dynamic = 0.111249 W
        Subthreshold Leakage = 0.00141664 W
        Gate Leakage = 0.000102138 W
        Runtime Dynamic = 0.0111457 W

*****************************************************************************************
BUSES
      Area = 0.0431708 mm^2
      Peak Dynamic = 0.0535642 W
      Subthreshold Leakage = 0.00140212 W
      Gate Leakage = 3.87872e-05 W
      Runtime Dynamic = 8.3319e-05 W

      Bus: 
        Area = 0.0431708 mm^2
        Peak Dynamic = 0.0535642 W
        Subthreshold Leakage = 0.00140212 W
        Gate Leakage = 3.87872e-05 W
        Runtime Dynamic = 8.3319e-05 W

*****************************************************************************************
