McPAT (version 1.3 of Feb, 2015) is computing the target processor...
 

McPAT (version 1.3 of Feb, 2015) results (current print level is 2, please increase print level to see the details in components): 
*****************************************************************************************
  Technology 22 nm
  Using Long Channel Devices When Appropriate
  Interconnect metal projection= aggressive interconnect technology projection
  Core clock Rate(MHz) 2100

*****************************************************************************************
Processor: 
  Area = 45.2865 mm^2
  Peak Power = 41.7368 W
  Total Leakage = 0.802887 W
  Peak Dynamic = 40.9339 W
  Subthreshold Leakage = 0.787903 W
  Gate Leakage = 0.014984 W
  Runtime Dynamic = 0.742486 W

  Total Cores: 1 cores 
  Device Type= ITRS high performance device type
    Area = 29.4744 mm^2
    Peak Dynamic = 36.6467 W
    Subthreshold Leakage = 0.401727 W
    Gate Leakage = 0.00666512 W
    Runtime Dynamic = 0.365567 W

  Total L3s: 
  Device Type= ITRS high performance device type
    Area = 12.6384 mm^2
    Peak Dynamic = 0.475714 W
    Subthreshold Leakage = 0.320863 W
    Gate Leakage = 0.00658576 W
    Runtime Dynamic = 0 W

  Total First Level Directory: 
  Device Type= ITRS high performance device type
    Area = 0.0981263 mm^2
    Peak Dynamic = 0 W
    Subthreshold Leakage = 0.00271355 W
    Gate Leakage = 0.000105986 W
    Runtime Dynamic = 0.000424752 W

  Total Second Level Directory: 
  Device Type= ITRS high performance device type
    Area = 2.44768 mm^2
    Peak Dynamic = 0 W
    Subthreshold Leakage = 0.0590133 W
    Gate Leakage = 0.0014502 W
    Runtime Dynamic = 2.23574e-05 W

  Total NoCs (Network/Bus): 
  Device Type= ITRS high performance device type
    Area = 0.04266 mm^2
    Peak Dynamic = 0.0529303 W
    Subthreshold Leakage = 0.00138552 W
    Gate Leakage = 3.83282e-05 W
    Runtime Dynamic = 8.56534e-05 W

  Total MCs: 1 Memory Controllers 
  Device Type= ITRS high performance device type
    Area = 0.585266 mm^2
    Peak Dynamic = 3.75856 W
    Subthreshold Leakage = 0.00220167 W
    Gate Leakage = 0.000138626 W
    Runtime Dynamic = 0.376386 W

*****************************************************************************************
Core:
      Area = 29.4744 mm^2
      Peak Dynamic = 36.6467 W
      Subthreshold Leakage = 0.401727 W
      Gate Leakage = 0.00666512 W
      Runtime Dynamic = 0.365567 W

      Instruction Fetch Unit:
        Area = 20.8874 mm^2
        Peak Dynamic = 25.2597 W
        Subthreshold Leakage = 0.233321 W
        Gate Leakage = 0.00379738 W
        Runtime Dynamic = 0.194287 W

      Renaming Unit:
        Area = 0.0170896 mm^2
        Peak Dynamic = 0.0329626 W
        Subthreshold Leakage = 0.000415753 W
        Gate Leakage = 1.59244e-05 W
        Runtime Dynamic = 0.00796171 W

      Load Store Unit:
        Area = 1.17668 mm^2
        Peak Dynamic = 2.85067 W
        Subthreshold Leakage = 0.0710541 W
        Gate Leakage = 0.00133033 W
        Runtime Dynamic = 0 W

      Memory Management Unit:
        Area = 0.0209028 mm^2
        Peak Dynamic = 0.0216112 W
        Subthreshold Leakage = 0.00117981 W
        Runtime Dynamic = 0 W

      Execution Unit:
        Area = 6.27858 mm^2
        Peak Dynamic = 7.70203 W
        Subthreshold Leakage = 0.039981 W
        Runtime Dynamic = 0.163318 W

    L2
    Area = 1.04433 mm^2
    Peak Dynamic = 0.779705 W
    Subthreshold Leakage = 0.0536665 W
    Gate Leakage = 0.000691988 W
    Runtime Dynamic = 0 W

*****************************************************************************************
      L3
      Area = 12.6384 mm^2
      Peak Dynamic = 0.475714 W
      Subthreshold Leakage = 0.320863 W
      Gate Leakage = 0.00658576 W
      Runtime Dynamic = 0 W

*****************************************************************************************
      First Level Directory
      Area = 0.0981263 mm^2
      Peak Dynamic = 0 W
      Subthreshold Leakage = 0.00271355 W
      Gate Leakage = 0.000105986 W
      Runtime Dynamic = 0.000424752 W

*****************************************************************************************
      Second Level Directory
      Area = 2.44768 mm^2
      Peak Dynamic = 0 W
      Subthreshold Leakage = 0.0590133 W
      Gate Leakage = 0.0014502 W
      Runtime Dynamic = 2.23574e-05 W

*****************************************************************************************
Memory Controller:
      Area = 0.585266 mm^2
      Peak Dynamic = 3.75856 W
      Subthreshold Leakage = 0.00220167 W
      Gate Leakage = 0.000138626 W
      Runtime Dynamic = 0.376386 W

      Front End Engine:
        Area = 0.0282043 mm^2
        Peak Dynamic = 0.0946396 W
        Subthreshold Leakage = 0.000430877 W
        Gate Leakage = 1.09532e-05 W
        Runtime Dynamic = 0.00947543 W

      Transaction Engine:
        Area = 0.0343669 mm^2
        Peak Dynamic = 3.55267 W
        Subthreshold Leakage = 0.000354159 W
        Gate Leakage = 2.55346e-05 W
        Runtime Dynamic = 0.355704 W

      PHY:
        Area = 0.522694 mm^2
        Peak Dynamic = 0.111249 W
        Subthreshold Leakage = 0.00141664 W
        Gate Leakage = 0.000102138 W
        Runtime Dynamic = 0.0112058 W

*****************************************************************************************
BUSES
      Area = 0.04266 mm^2
      Peak Dynamic = 0.0529303 W
      Subthreshold Leakage = 0.00138552 W
      Gate Leakage = 3.83282e-05 W
      Runtime Dynamic = 8.56534e-05 W

      Bus: 
        Area = 0.04266 mm^2
        Peak Dynamic = 0.0529303 W
        Subthreshold Leakage = 0.00138552 W
        Gate Leakage = 3.83282e-05 W
        Runtime Dynamic = 8.56534e-05 W

*****************************************************************************************
