
---------- Begin Simulation Statistics ----------
simSeconds                                   0.110870                       # Number of seconds simulated (Second)
simTicks                                 110870366488                       # Number of ticks simulated (Tick)
finalTick                                110870366488                       # Number of ticks from beginning of simulation (restored from checkpoints and never reset) (Tick)
simFreq                                  1000000000000                       # The number of ticks per simulated second ((Tick/Second))
hostSeconds                                   1408.59                       # Real time elapsed on the host (Second)
hostTickRate                                 78710094                       # The number of ticks simulated per host second (ticks/s) ((Tick/Second))
hostMemory                                    2261792                       # Number of bytes of host memory used (Byte)
simInsts                                    261123638                       # Number of instructions simulated (Count)
simOps                                      312341036                       # Number of ops (including micro ops) simulated (Count)
hostInstRate                                   185379                       # Simulator instruction rate (inst/s) ((Count/Second))
hostOpRate                                     221740                       # Simulator op (including micro ops) rate (op/s) ((Count/Second))
system.clk_domain.clock                           476                       # Clock period in ticks (Tick)
system.clk_domain.voltage_domain.voltage            1                       # Voltage in Volts (Volt)
system.cpu.numCycles                        232920939                       # Number of cpu cycles simulated (Cycle)
system.cpu.cpi                               0.891204                       # CPI: cycles per instruction (core level) ((Cycle/Count))
system.cpu.ipc                               1.122077                       # IPC: instructions per cycle (core level) ((Count/Cycle))
system.cpu.numWorkItemsStarted                      0                       # Number of work items this cpu started (Count)
system.cpu.numWorkItemsCompleted                    0                       # Number of work items this cpu completed (Count)
system.cpu.instsAdded                       335638206                       # Number of instructions added to the IQ (excludes non-spec) (Count)
system.cpu.nonSpecInstsAdded                   177324                       # Number of non-speculative instructions added to the IQ (Count)
system.cpu.instsIssued                      331419577                       # Number of instructions issued (Count)
system.cpu.squashedInstsIssued                 196017                       # Number of squashed instructions issued (Count)
system.cpu.squashedInstsExamined             23474493                       # Number of squashed instructions iterated over during squash; mainly for profiling (Count)
system.cpu.squashedOperandsExamined          19259761                       # Number of squashed operands that are examined and possibly removed from graph (Count)
system.cpu.squashedNonSpecRemoved                1182                       # Number of squashed non-spec instructions that were removed (Count)
system.cpu.numIssuedDist::samples           232421517                       # Number of insts issued each cycle (Count)
system.cpu.numIssuedDist::mean               1.425942                       # Number of insts issued each cycle (Count)
system.cpu.numIssuedDist::stdev              1.350997                       # Number of insts issued each cycle (Count)
system.cpu.numIssuedDist::underflows                0      0.00%      0.00% # Number of insts issued each cycle (Count)
system.cpu.numIssuedDist::0                  75533303     32.50%     32.50% # Number of insts issued each cycle (Count)
system.cpu.numIssuedDist::1                  56486499     24.30%     56.80% # Number of insts issued each cycle (Count)
system.cpu.numIssuedDist::2                  51643692     22.22%     79.02% # Number of insts issued each cycle (Count)
system.cpu.numIssuedDist::3                  30237918     13.01%     92.03% # Number of insts issued each cycle (Count)
system.cpu.numIssuedDist::4                  13157730      5.66%     97.69% # Number of insts issued each cycle (Count)
system.cpu.numIssuedDist::5                   4158795      1.79%     99.48% # Number of insts issued each cycle (Count)
system.cpu.numIssuedDist::6                    948993      0.41%     99.89% # Number of insts issued each cycle (Count)
system.cpu.numIssuedDist::7                    223609      0.10%     99.99% # Number of insts issued each cycle (Count)
system.cpu.numIssuedDist::8                     30978      0.01%    100.00% # Number of insts issued each cycle (Count)
system.cpu.numIssuedDist::overflows                 0      0.00%    100.00% # Number of insts issued each cycle (Count)
system.cpu.numIssuedDist::min_value                 0                       # Number of insts issued each cycle (Count)
system.cpu.numIssuedDist::max_value                 8                       # Number of insts issued each cycle (Count)
system.cpu.numIssuedDist::total             232421517                       # Number of insts issued each cycle (Count)
system.cpu.statFuBusy::No_OpClass                   0      0.00%      0.00% # attempts to use FU when none available (Count)
system.cpu.statFuBusy::IntAlu                       0      0.00%      0.00% # attempts to use FU when none available (Count)
system.cpu.statFuBusy::IntMult                 206036      0.86%      0.86% # attempts to use FU when none available (Count)
system.cpu.statFuBusy::IntDiv                    3346      0.01%      0.88% # attempts to use FU when none available (Count)
system.cpu.statFuBusy::FloatAdd                     0      0.00%      0.88% # attempts to use FU when none available (Count)
system.cpu.statFuBusy::FloatCmp                     0      0.00%      0.88% # attempts to use FU when none available (Count)
system.cpu.statFuBusy::FloatCvt                     0      0.00%      0.88% # attempts to use FU when none available (Count)
system.cpu.statFuBusy::FloatMult                    0      0.00%      0.88% # attempts to use FU when none available (Count)
system.cpu.statFuBusy::FloatMultAcc                 0      0.00%      0.88% # attempts to use FU when none available (Count)
system.cpu.statFuBusy::FloatDiv                     0      0.00%      0.88% # attempts to use FU when none available (Count)
system.cpu.statFuBusy::FloatMisc                  517      0.00%      0.88% # attempts to use FU when none available (Count)
system.cpu.statFuBusy::FloatSqrt                    0      0.00%      0.88% # attempts to use FU when none available (Count)
system.cpu.statFuBusy::SimdAdd                1984496      8.31%      9.18% # attempts to use FU when none available (Count)
system.cpu.statFuBusy::SimdAddAcc             1015956      4.25%     13.44% # attempts to use FU when none available (Count)
system.cpu.statFuBusy::SimdAlu                 780618      3.27%     16.70% # attempts to use FU when none available (Count)
system.cpu.statFuBusy::SimdCmp                 323726      1.35%     18.06% # attempts to use FU when none available (Count)
system.cpu.statFuBusy::SimdCvt                      0      0.00%     18.06% # attempts to use FU when none available (Count)
system.cpu.statFuBusy::SimdMisc               1016334      4.25%     22.31% # attempts to use FU when none available (Count)
system.cpu.statFuBusy::SimdMult                 83967      0.35%     22.66% # attempts to use FU when none available (Count)
system.cpu.statFuBusy::SimdMultAcc             500487      2.09%     24.76% # attempts to use FU when none available (Count)
system.cpu.statFuBusy::SimdMatMultAcc               0      0.00%     24.76% # attempts to use FU when none available (Count)
system.cpu.statFuBusy::SimdShift               256593      1.07%     25.83% # attempts to use FU when none available (Count)
system.cpu.statFuBusy::SimdShiftAcc                 0      0.00%     25.83% # attempts to use FU when none available (Count)
system.cpu.statFuBusy::SimdDiv                      0      0.00%     25.83% # attempts to use FU when none available (Count)
system.cpu.statFuBusy::SimdSqrt                     0      0.00%     25.83% # attempts to use FU when none available (Count)
system.cpu.statFuBusy::SimdFloatAdd                 0      0.00%     25.83% # attempts to use FU when none available (Count)
system.cpu.statFuBusy::SimdFloatAlu                 0      0.00%     25.83% # attempts to use FU when none available (Count)
system.cpu.statFuBusy::SimdFloatCmp                 0      0.00%     25.83% # attempts to use FU when none available (Count)
system.cpu.statFuBusy::SimdFloatCvt                 0      0.00%     25.83% # attempts to use FU when none available (Count)
system.cpu.statFuBusy::SimdFloatDiv                 0      0.00%     25.83% # attempts to use FU when none available (Count)
system.cpu.statFuBusy::SimdFloatMisc                0      0.00%     25.83% # attempts to use FU when none available (Count)
system.cpu.statFuBusy::SimdFloatMult                0      0.00%     25.83% # attempts to use FU when none available (Count)
system.cpu.statFuBusy::SimdFloatMultAcc             0      0.00%     25.83% # attempts to use FU when none available (Count)
system.cpu.statFuBusy::SimdFloatMatMultAcc            0      0.00%     25.83% # attempts to use FU when none available (Count)
system.cpu.statFuBusy::SimdFloatSqrt                0      0.00%     25.83% # attempts to use FU when none available (Count)
system.cpu.statFuBusy::SimdReduceAdd                0      0.00%     25.83% # attempts to use FU when none available (Count)
system.cpu.statFuBusy::SimdReduceAlu                0      0.00%     25.83% # attempts to use FU when none available (Count)
system.cpu.statFuBusy::SimdReduceCmp                0      0.00%     25.83% # attempts to use FU when none available (Count)
system.cpu.statFuBusy::SimdFloatReduceAdd            0      0.00%     25.83% # attempts to use FU when none available (Count)
system.cpu.statFuBusy::SimdFloatReduceCmp            0      0.00%     25.83% # attempts to use FU when none available (Count)
system.cpu.statFuBusy::SimdAes                      0      0.00%     25.83% # attempts to use FU when none available (Count)
system.cpu.statFuBusy::SimdAesMix                   0      0.00%     25.83% # attempts to use FU when none available (Count)
system.cpu.statFuBusy::SimdSha1Hash                 0      0.00%     25.83% # attempts to use FU when none available (Count)
system.cpu.statFuBusy::SimdSha1Hash2                0      0.00%     25.83% # attempts to use FU when none available (Count)
system.cpu.statFuBusy::SimdSha256Hash               0      0.00%     25.83% # attempts to use FU when none available (Count)
system.cpu.statFuBusy::SimdSha256Hash2              0      0.00%     25.83% # attempts to use FU when none available (Count)
system.cpu.statFuBusy::SimdShaSigma2                0      0.00%     25.83% # attempts to use FU when none available (Count)
system.cpu.statFuBusy::SimdShaSigma3                0      0.00%     25.83% # attempts to use FU when none available (Count)
system.cpu.statFuBusy::SimdPredAlu                  0      0.00%     25.83% # attempts to use FU when none available (Count)
system.cpu.statFuBusy::Matrix                       0      0.00%     25.83% # attempts to use FU when none available (Count)
system.cpu.statFuBusy::MatrixMov                    0      0.00%     25.83% # attempts to use FU when none available (Count)
system.cpu.statFuBusy::MatrixOP                     0      0.00%     25.83% # attempts to use FU when none available (Count)
system.cpu.statFuBusy::MemRead                 738518      3.09%     28.92% # attempts to use FU when none available (Count)
system.cpu.statFuBusy::MemWrite              16980901     71.08%    100.00% # attempts to use FU when none available (Count)
system.cpu.statFuBusy::FloatMemRead                 0      0.00%    100.00% # attempts to use FU when none available (Count)
system.cpu.statFuBusy::FloatMemWrite                0      0.00%    100.00% # attempts to use FU when none available (Count)
system.cpu.statFuBusy::IprAccess                    0      0.00%    100.00% # attempts to use FU when none available (Count)
system.cpu.statFuBusy::InstPrefetch                 0      0.00%    100.00% # attempts to use FU when none available (Count)
system.cpu.statFuBusy::VectorUnitStrideLoad            0      0.00%    100.00% # attempts to use FU when none available (Count)
system.cpu.statFuBusy::VectorUnitStrideStore            0      0.00%    100.00% # attempts to use FU when none available (Count)
system.cpu.statFuBusy::VectorUnitStrideMaskLoad            0      0.00%    100.00% # attempts to use FU when none available (Count)
system.cpu.statFuBusy::VectorUnitStrideMaskStore            0      0.00%    100.00% # attempts to use FU when none available (Count)
system.cpu.statFuBusy::VectorStridedLoad            0      0.00%    100.00% # attempts to use FU when none available (Count)
system.cpu.statFuBusy::VectorStridedStore            0      0.00%    100.00% # attempts to use FU when none available (Count)
system.cpu.statFuBusy::VectorIndexedLoad            0      0.00%    100.00% # attempts to use FU when none available (Count)
system.cpu.statFuBusy::VectorIndexedStore            0      0.00%    100.00% # attempts to use FU when none available (Count)
system.cpu.statFuBusy::VectorUnitStrideFaultOnlyFirstLoad            0      0.00%    100.00% # attempts to use FU when none available (Count)
system.cpu.statFuBusy::VectorWholeRegisterLoad            0      0.00%    100.00% # attempts to use FU when none available (Count)
system.cpu.statFuBusy::VectorWholeRegisterStore            0      0.00%    100.00% # attempts to use FU when none available (Count)
system.cpu.statFuBusy::VectorIntegerArith            0      0.00%    100.00% # attempts to use FU when none available (Count)
system.cpu.statFuBusy::VectorFloatArith             0      0.00%    100.00% # attempts to use FU when none available (Count)
system.cpu.statFuBusy::VectorFloatConvert            0      0.00%    100.00% # attempts to use FU when none available (Count)
system.cpu.statFuBusy::VectorIntegerReduce            0      0.00%    100.00% # attempts to use FU when none available (Count)
system.cpu.statFuBusy::VectorFloatReduce            0      0.00%    100.00% # attempts to use FU when none available (Count)
system.cpu.statFuBusy::VectorMisc                   0      0.00%    100.00% # attempts to use FU when none available (Count)
system.cpu.statFuBusy::VectorIntegerExtension            0      0.00%    100.00% # attempts to use FU when none available (Count)
system.cpu.statFuBusy::VectorConfig                 0      0.00%    100.00% # attempts to use FU when none available (Count)
system.cpu.statIssuedInstType_0::No_OpClass      4667185      1.41%      1.41% # Number of instructions issued per FU type, per thread (Count)
system.cpu.statIssuedInstType_0::IntAlu     179655638     54.21%     55.62% # Number of instructions issued per FU type, per thread (Count)
system.cpu.statIssuedInstType_0::IntMult      1826327      0.55%     56.17% # Number of instructions issued per FU type, per thread (Count)
system.cpu.statIssuedInstType_0::IntDiv         91844      0.03%     56.19% # Number of instructions issued per FU type, per thread (Count)
system.cpu.statIssuedInstType_0::FloatAdd          604      0.00%     56.20% # Number of instructions issued per FU type, per thread (Count)
system.cpu.statIssuedInstType_0::FloatCmp            4      0.00%     56.20% # Number of instructions issued per FU type, per thread (Count)
system.cpu.statIssuedInstType_0::FloatCvt          617      0.00%     56.20% # Number of instructions issued per FU type, per thread (Count)
system.cpu.statIssuedInstType_0::FloatMult            0      0.00%     56.20% # Number of instructions issued per FU type, per thread (Count)
system.cpu.statIssuedInstType_0::FloatMultAcc            0      0.00%     56.20% # Number of instructions issued per FU type, per thread (Count)
system.cpu.statIssuedInstType_0::FloatDiv          606      0.00%     56.20% # Number of instructions issued per FU type, per thread (Count)
system.cpu.statIssuedInstType_0::FloatMisc         6518      0.00%     56.20% # Number of instructions issued per FU type, per thread (Count)
system.cpu.statIssuedInstType_0::FloatSqrt            0      0.00%     56.20% # Number of instructions issued per FU type, per thread (Count)
system.cpu.statIssuedInstType_0::SimdAdd     16022942      4.83%     61.03% # Number of instructions issued per FU type, per thread (Count)
system.cpu.statIssuedInstType_0::SimdAddAcc      3395737      1.02%     62.06% # Number of instructions issued per FU type, per thread (Count)
system.cpu.statIssuedInstType_0::SimdAlu      5261257      1.59%     63.64% # Number of instructions issued per FU type, per thread (Count)
system.cpu.statIssuedInstType_0::SimdCmp      1671202      0.50%     64.15% # Number of instructions issued per FU type, per thread (Count)
system.cpu.statIssuedInstType_0::SimdCvt            1      0.00%     64.15% # Number of instructions issued per FU type, per thread (Count)
system.cpu.statIssuedInstType_0::SimdMisc      4556215      1.37%     65.52% # Number of instructions issued per FU type, per thread (Count)
system.cpu.statIssuedInstType_0::SimdMult       408731      0.12%     65.65% # Number of instructions issued per FU type, per thread (Count)
system.cpu.statIssuedInstType_0::SimdMultAcc      2870774      0.87%     66.51% # Number of instructions issued per FU type, per thread (Count)
system.cpu.statIssuedInstType_0::SimdMatMultAcc            0      0.00%     66.51% # Number of instructions issued per FU type, per thread (Count)
system.cpu.statIssuedInstType_0::SimdShift      4085742      1.23%     67.75% # Number of instructions issued per FU type, per thread (Count)
system.cpu.statIssuedInstType_0::SimdShiftAcc            0      0.00%     67.75% # Number of instructions issued per FU type, per thread (Count)
system.cpu.statIssuedInstType_0::SimdDiv            0      0.00%     67.75% # Number of instructions issued per FU type, per thread (Count)
system.cpu.statIssuedInstType_0::SimdSqrt            0      0.00%     67.75% # Number of instructions issued per FU type, per thread (Count)
system.cpu.statIssuedInstType_0::SimdFloatAdd            0      0.00%     67.75% # Number of instructions issued per FU type, per thread (Count)
system.cpu.statIssuedInstType_0::SimdFloatAlu            0      0.00%     67.75% # Number of instructions issued per FU type, per thread (Count)
system.cpu.statIssuedInstType_0::SimdFloatCmp            0      0.00%     67.75% # Number of instructions issued per FU type, per thread (Count)
system.cpu.statIssuedInstType_0::SimdFloatCvt            0      0.00%     67.75% # Number of instructions issued per FU type, per thread (Count)
system.cpu.statIssuedInstType_0::SimdFloatDiv            0      0.00%     67.75% # Number of instructions issued per FU type, per thread (Count)
system.cpu.statIssuedInstType_0::SimdFloatMisc            0      0.00%     67.75% # Number of instructions issued per FU type, per thread (Count)
system.cpu.statIssuedInstType_0::SimdFloatMult            0      0.00%     67.75% # Number of instructions issued per FU type, per thread (Count)
system.cpu.statIssuedInstType_0::SimdFloatMultAcc            0      0.00%     67.75% # Number of instructions issued per FU type, per thread (Count)
system.cpu.statIssuedInstType_0::SimdFloatMatMultAcc            0      0.00%     67.75% # Number of instructions issued per FU type, per thread (Count)
system.cpu.statIssuedInstType_0::SimdFloatSqrt            0      0.00%     67.75% # Number of instructions issued per FU type, per thread (Count)
system.cpu.statIssuedInstType_0::SimdReduceAdd            0      0.00%     67.75% # Number of instructions issued per FU type, per thread (Count)
system.cpu.statIssuedInstType_0::SimdReduceAlu            0      0.00%     67.75% # Number of instructions issued per FU type, per thread (Count)
system.cpu.statIssuedInstType_0::SimdReduceCmp            0      0.00%     67.75% # Number of instructions issued per FU type, per thread (Count)
system.cpu.statIssuedInstType_0::SimdFloatReduceAdd            0      0.00%     67.75% # Number of instructions issued per FU type, per thread (Count)
system.cpu.statIssuedInstType_0::SimdFloatReduceCmp            0      0.00%     67.75% # Number of instructions issued per FU type, per thread (Count)
system.cpu.statIssuedInstType_0::SimdAes            0      0.00%     67.75% # Number of instructions issued per FU type, per thread (Count)
system.cpu.statIssuedInstType_0::SimdAesMix            0      0.00%     67.75% # Number of instructions issued per FU type, per thread (Count)
system.cpu.statIssuedInstType_0::SimdSha1Hash            0      0.00%     67.75% # Number of instructions issued per FU type, per thread (Count)
system.cpu.statIssuedInstType_0::SimdSha1Hash2            0      0.00%     67.75% # Number of instructions issued per FU type, per thread (Count)
system.cpu.statIssuedInstType_0::SimdSha256Hash            0      0.00%     67.75% # Number of instructions issued per FU type, per thread (Count)
system.cpu.statIssuedInstType_0::SimdSha256Hash2            0      0.00%     67.75% # Number of instructions issued per FU type, per thread (Count)
system.cpu.statIssuedInstType_0::SimdShaSigma2            0      0.00%     67.75% # Number of instructions issued per FU type, per thread (Count)
system.cpu.statIssuedInstType_0::SimdShaSigma3            0      0.00%     67.75% # Number of instructions issued per FU type, per thread (Count)
system.cpu.statIssuedInstType_0::SimdPredAlu            0      0.00%     67.75% # Number of instructions issued per FU type, per thread (Count)
system.cpu.statIssuedInstType_0::Matrix             0      0.00%     67.75% # Number of instructions issued per FU type, per thread (Count)
system.cpu.statIssuedInstType_0::MatrixMov            0      0.00%     67.75% # Number of instructions issued per FU type, per thread (Count)
system.cpu.statIssuedInstType_0::MatrixOP            0      0.00%     67.75% # Number of instructions issued per FU type, per thread (Count)
system.cpu.statIssuedInstType_0::MemRead     69280348     20.90%     88.65% # Number of instructions issued per FU type, per thread (Count)
system.cpu.statIssuedInstType_0::MemWrite     37617285     11.35%    100.00% # Number of instructions issued per FU type, per thread (Count)
system.cpu.statIssuedInstType_0::FloatMemRead            0      0.00%    100.00% # Number of instructions issued per FU type, per thread (Count)
system.cpu.statIssuedInstType_0::FloatMemWrite            0      0.00%    100.00% # Number of instructions issued per FU type, per thread (Count)
system.cpu.statIssuedInstType_0::IprAccess            0      0.00%    100.00% # Number of instructions issued per FU type, per thread (Count)
system.cpu.statIssuedInstType_0::InstPrefetch            0      0.00%    100.00% # Number of instructions issued per FU type, per thread (Count)
system.cpu.statIssuedInstType_0::VectorUnitStrideLoad            0      0.00%    100.00% # Number of instructions issued per FU type, per thread (Count)
system.cpu.statIssuedInstType_0::VectorUnitStrideStore            0      0.00%    100.00% # Number of instructions issued per FU type, per thread (Count)
system.cpu.statIssuedInstType_0::VectorUnitStrideMaskLoad            0      0.00%    100.00% # Number of instructions issued per FU type, per thread (Count)
system.cpu.statIssuedInstType_0::VectorUnitStrideMaskStore            0      0.00%    100.00% # Number of instructions issued per FU type, per thread (Count)
system.cpu.statIssuedInstType_0::VectorStridedLoad            0      0.00%    100.00% # Number of instructions issued per FU type, per thread (Count)
system.cpu.statIssuedInstType_0::VectorStridedStore            0      0.00%    100.00% # Number of instructions issued per FU type, per thread (Count)
system.cpu.statIssuedInstType_0::VectorIndexedLoad            0      0.00%    100.00% # Number of instructions issued per FU type, per thread (Count)
system.cpu.statIssuedInstType_0::VectorIndexedStore            0      0.00%    100.00% # Number of instructions issued per FU type, per thread (Count)
system.cpu.statIssuedInstType_0::VectorUnitStrideFaultOnlyFirstLoad            0      0.00%    100.00% # Number of instructions issued per FU type, per thread (Count)
system.cpu.statIssuedInstType_0::VectorWholeRegisterLoad            0      0.00%    100.00% # Number of instructions issued per FU type, per thread (Count)
system.cpu.statIssuedInstType_0::VectorWholeRegisterStore            0      0.00%    100.00% # Number of instructions issued per FU type, per thread (Count)
system.cpu.statIssuedInstType_0::VectorIntegerArith            0      0.00%    100.00% # Number of instructions issued per FU type, per thread (Count)
system.cpu.statIssuedInstType_0::VectorFloatArith            0      0.00%    100.00% # Number of instructions issued per FU type, per thread (Count)
system.cpu.statIssuedInstType_0::VectorFloatConvert            0      0.00%    100.00% # Number of instructions issued per FU type, per thread (Count)
system.cpu.statIssuedInstType_0::VectorIntegerReduce            0      0.00%    100.00% # Number of instructions issued per FU type, per thread (Count)
system.cpu.statIssuedInstType_0::VectorFloatReduce            0      0.00%    100.00% # Number of instructions issued per FU type, per thread (Count)
system.cpu.statIssuedInstType_0::VectorMisc            0      0.00%    100.00% # Number of instructions issued per FU type, per thread (Count)
system.cpu.statIssuedInstType_0::VectorIntegerExtension            0      0.00%    100.00% # Number of instructions issued per FU type, per thread (Count)
system.cpu.statIssuedInstType_0::VectorConfig            0      0.00%    100.00% # Number of instructions issued per FU type, per thread (Count)
system.cpu.statIssuedInstType_0::total      331419577                       # Number of instructions issued per FU type, per thread (Count)
system.cpu.issueRate                         1.422884                       # Inst issue rate ((Count/Cycle))
system.cpu.fuBusy                            23891495                       # FU busy when requested (Count)
system.cpu.fuBusyRate                        0.072088                       # FU busy rate (busy events/executed inst) ((Count/Count))
system.cpu.intInstQueueReads                799263125                       # Number of integer instruction queue reads (Count)
system.cpu.intInstQueueWrites               300845374                       # Number of integer instruction queue writes (Count)
system.cpu.intInstQueueWakeupAccesses       267741091                       # Number of integer instruction queue wakeup accesses (Count)
system.cpu.fpInstQueueReads                         0                       # Number of floating instruction queue reads (Count)
system.cpu.fpInstQueueWrites                        0                       # Number of floating instruction queue writes (Count)
system.cpu.fpInstQueueWakeupAccesses                0                       # Number of floating instruction queue wakeup accesses (Count)
system.cpu.vecInstQueueReads                120085058                       # Number of vector instruction queue reads (Count)
system.cpu.vecInstQueueWrites                58468545                       # Number of vector instruction queue writes (Count)
system.cpu.vecInstQueueWakeupAccesses        55133675                       # Number of vector instruction queue wakeup accesses (Count)
system.cpu.intAluAccesses                   290809628                       # Number of integer alu accesses (Count)
system.cpu.fpAluAccesses                            0                       # Number of floating point alu accesses (Count)
system.cpu.vecAluAccesses                    59834259                       # Number of vector alu accesses (Count)
system.cpu.numSquashedInsts                   4225372                       # Number of squashed instructions skipped in execute (Count)
system.cpu.numSwp                                   0                       # Number of swp insts executed (Count)
system.cpu.timesIdled                           13592                       # Number of times that the entire CPU went into an idle state and unscheduled itself (Count)
system.cpu.idleCycles                          499422                       # Total number of cycles that the CPU has spent unscheduled due to idling (Cycle)
system.cpu.MemDepUnit__0.insertedLoads       67875405                       # Number of loads inserted to the mem dependence unit. (Count)
system.cpu.MemDepUnit__0.insertedStores      38665659                       # Number of stores inserted to the mem dependence unit. (Count)
system.cpu.MemDepUnit__0.conflictingLoads      1283139                       # Number of conflicting loads. (Count)
system.cpu.MemDepUnit__0.conflictingStores      2258035                       # Number of conflicting stores. (Count)
system.cpu.MemDepUnit__1.insertedLoads              0                       # Number of loads inserted to the mem dependence unit. (Count)
system.cpu.MemDepUnit__1.insertedStores             0                       # Number of stores inserted to the mem dependence unit. (Count)
system.cpu.MemDepUnit__1.conflictingLoads            0                       # Number of conflicting loads. (Count)
system.cpu.MemDepUnit__1.conflictingStores            0                       # Number of conflicting stores. (Count)
system.cpu.MemDepUnit__2.insertedLoads              0                       # Number of loads inserted to the mem dependence unit. (Count)
system.cpu.MemDepUnit__2.insertedStores             0                       # Number of stores inserted to the mem dependence unit. (Count)
system.cpu.MemDepUnit__2.conflictingLoads            0                       # Number of conflicting loads. (Count)
system.cpu.MemDepUnit__2.conflictingStores            0                       # Number of conflicting stores. (Count)
system.cpu.MemDepUnit__3.insertedLoads              0                       # Number of loads inserted to the mem dependence unit. (Count)
system.cpu.MemDepUnit__3.insertedStores             0                       # Number of stores inserted to the mem dependence unit. (Count)
system.cpu.MemDepUnit__3.conflictingLoads            0                       # Number of conflicting loads. (Count)
system.cpu.MemDepUnit__3.conflictingStores            0                       # Number of conflicting stores. (Count)
system.cpu.branchPred.lookups                37937063                       # Number of BP lookups (Count)
system.cpu.branchPred.condPredicted          27711787                       # Number of conditional branches predicted (Count)
system.cpu.branchPred.condIncorrect           1822784                       # Number of conditional branches incorrect (Count)
system.cpu.branchPred.BTBLookups             17705794                       # Number of BTB lookups (Count)
system.cpu.branchPred.BTBUpdates               893419                       # Number of BTB updates (Count)
system.cpu.branchPred.BTBHits                17457218                       # Number of BTB hits (Count)
system.cpu.branchPred.BTBHitRatio            0.985961                       # BTB Hit Ratio (Ratio)
system.cpu.branchPred.RASUsed                 2696809                       # Number of times the RAS was used to get a target. (Count)
system.cpu.branchPred.RASIncorrect                813                       # Number of incorrect RAS predictions. (Count)
system.cpu.branchPred.indirectLookups         1094817                       # Number of indirect predictor lookups. (Count)
system.cpu.branchPred.indirectHits             832915                       # Number of indirect target hits. (Count)
system.cpu.branchPred.indirectMisses           261902                       # Number of indirect misses. (Count)
system.cpu.branchPred.indirectMispredicted       185546                       # Number of mispredicted indirect branches. (Count)
system.cpu.commit.commitSquashedInsts        21269231                       # The number of squashed insts skipped by commit (Count)
system.cpu.commit.commitNonSpecStalls          176142                       # The number of times commit has been forced to stall to communicate backwards (Count)
system.cpu.commit.branchMispredicts           1784593                       # The number of times a branch was mispredicted (Count)
system.cpu.commit.numCommittedDist::samples    228848256                       # Number of insts commited each cycle (Count)
system.cpu.commit.numCommittedDist::mean     1.365851                       # Number of insts commited each cycle (Count)
system.cpu.commit.numCommittedDist::stdev     1.594575                       # Number of insts commited each cycle (Count)
system.cpu.commit.numCommittedDist::underflows            0      0.00%      0.00% # Number of insts commited each cycle (Count)
system.cpu.commit.numCommittedDist::0       107732181     47.08%     47.08% # Number of insts commited each cycle (Count)
system.cpu.commit.numCommittedDist::1        38605575     16.87%     63.95% # Number of insts commited each cycle (Count)
system.cpu.commit.numCommittedDist::2        21281981      9.30%     73.24% # Number of insts commited each cycle (Count)
system.cpu.commit.numCommittedDist::3        13510910      5.90%     79.15% # Number of insts commited each cycle (Count)
system.cpu.commit.numCommittedDist::4        47717609     20.85%    100.00% # Number of insts commited each cycle (Count)
system.cpu.commit.numCommittedDist::overflows            0      0.00%    100.00% # Number of insts commited each cycle (Count)
system.cpu.commit.numCommittedDist::min_value            0                       # Number of insts commited each cycle (Count)
system.cpu.commit.numCommittedDist::max_value            4                       # Number of insts commited each cycle (Count)
system.cpu.commit.numCommittedDist::total    228848256                       # Number of insts commited each cycle (Count)
system.cpu.commit.amos                              0                       # Number of atomic instructions committed (Count)
system.cpu.commit.membars                      172889                       # Number of memory barriers committed (Count)
system.cpu.commit.functionCalls               2271526                       # Number of function calls committed. (Count)
system.cpu.commit.committedInstType_0::No_OpClass      4622821      1.48%      1.48% # Class of committed instruction (Count)
system.cpu.commit.committedInstType_0::IntAlu    169456037     54.21%     55.69% # Class of committed instruction (Count)
system.cpu.commit.committedInstType_0::IntMult      1797859      0.58%     56.27% # Class of committed instruction (Count)
system.cpu.commit.committedInstType_0::IntDiv        91419      0.03%     56.30% # Class of committed instruction (Count)
system.cpu.commit.committedInstType_0::FloatAdd          604      0.00%     56.30% # Class of committed instruction (Count)
system.cpu.commit.committedInstType_0::FloatCmp            4      0.00%     56.30% # Class of committed instruction (Count)
system.cpu.commit.committedInstType_0::FloatCvt          605      0.00%     56.30% # Class of committed instruction (Count)
system.cpu.commit.committedInstType_0::FloatMult            0      0.00%     56.30% # Class of committed instruction (Count)
system.cpu.commit.committedInstType_0::FloatMultAcc            0      0.00%     56.30% # Class of committed instruction (Count)
system.cpu.commit.committedInstType_0::FloatDiv          606      0.00%     56.30% # Class of committed instruction (Count)
system.cpu.commit.committedInstType_0::FloatMisc         6515      0.00%     56.30% # Class of committed instruction (Count)
system.cpu.commit.committedInstType_0::FloatSqrt            0      0.00%     56.30% # Class of committed instruction (Count)
system.cpu.commit.committedInstType_0::SimdAdd     15769927      5.05%     61.34% # Class of committed instruction (Count)
system.cpu.commit.committedInstType_0::SimdAddAcc      3381077      1.08%     62.43% # Class of committed instruction (Count)
system.cpu.commit.committedInstType_0::SimdAlu      5207853      1.67%     64.09% # Class of committed instruction (Count)
system.cpu.commit.committedInstType_0::SimdCmp      1592829      0.51%     64.60% # Class of committed instruction (Count)
system.cpu.commit.committedInstType_0::SimdCvt            1      0.00%     64.60% # Class of committed instruction (Count)
system.cpu.commit.committedInstType_0::SimdMisc      4483103      1.43%     66.04% # Class of committed instruction (Count)
system.cpu.commit.committedInstType_0::SimdMult       408442      0.13%     66.17% # Class of committed instruction (Count)
system.cpu.commit.committedInstType_0::SimdMultAcc      2870682      0.92%     67.09% # Class of committed instruction (Count)
system.cpu.commit.committedInstType_0::SimdMatMultAcc            0      0.00%     67.09% # Class of committed instruction (Count)
system.cpu.commit.committedInstType_0::SimdShift      4072746      1.30%     68.39% # Class of committed instruction (Count)
system.cpu.commit.committedInstType_0::SimdShiftAcc            0      0.00%     68.39% # Class of committed instruction (Count)
system.cpu.commit.committedInstType_0::SimdDiv            0      0.00%     68.39% # Class of committed instruction (Count)
system.cpu.commit.committedInstType_0::SimdSqrt            0      0.00%     68.39% # Class of committed instruction (Count)
system.cpu.commit.committedInstType_0::SimdFloatAdd            0      0.00%     68.39% # Class of committed instruction (Count)
system.cpu.commit.committedInstType_0::SimdFloatAlu            0      0.00%     68.39% # Class of committed instruction (Count)
system.cpu.commit.committedInstType_0::SimdFloatCmp            0      0.00%     68.39% # Class of committed instruction (Count)
system.cpu.commit.committedInstType_0::SimdFloatCvt            0      0.00%     68.39% # Class of committed instruction (Count)
system.cpu.commit.committedInstType_0::SimdFloatDiv            0      0.00%     68.39% # Class of committed instruction (Count)
system.cpu.commit.committedInstType_0::SimdFloatMisc            0      0.00%     68.39% # Class of committed instruction (Count)
system.cpu.commit.committedInstType_0::SimdFloatMult            0      0.00%     68.39% # Class of committed instruction (Count)
system.cpu.commit.committedInstType_0::SimdFloatMultAcc            0      0.00%     68.39% # Class of committed instruction (Count)
system.cpu.commit.committedInstType_0::SimdFloatMatMultAcc            0      0.00%     68.39% # Class of committed instruction (Count)
system.cpu.commit.committedInstType_0::SimdFloatSqrt            0      0.00%     68.39% # Class of committed instruction (Count)
system.cpu.commit.committedInstType_0::SimdReduceAdd            0      0.00%     68.39% # Class of committed instruction (Count)
system.cpu.commit.committedInstType_0::SimdReduceAlu            0      0.00%     68.39% # Class of committed instruction (Count)
system.cpu.commit.committedInstType_0::SimdReduceCmp            0      0.00%     68.39% # Class of committed instruction (Count)
system.cpu.commit.committedInstType_0::SimdFloatReduceAdd            0      0.00%     68.39% # Class of committed instruction (Count)
system.cpu.commit.committedInstType_0::SimdFloatReduceCmp            0      0.00%     68.39% # Class of committed instruction (Count)
system.cpu.commit.committedInstType_0::SimdAes            0      0.00%     68.39% # Class of committed instruction (Count)
system.cpu.commit.committedInstType_0::SimdAesMix            0      0.00%     68.39% # Class of committed instruction (Count)
system.cpu.commit.committedInstType_0::SimdSha1Hash            0      0.00%     68.39% # Class of committed instruction (Count)
system.cpu.commit.committedInstType_0::SimdSha1Hash2            0      0.00%     68.39% # Class of committed instruction (Count)
system.cpu.commit.committedInstType_0::SimdSha256Hash            0      0.00%     68.39% # Class of committed instruction (Count)
system.cpu.commit.committedInstType_0::SimdSha256Hash2            0      0.00%     68.39% # Class of committed instruction (Count)
system.cpu.commit.committedInstType_0::SimdShaSigma2            0      0.00%     68.39% # Class of committed instruction (Count)
system.cpu.commit.committedInstType_0::SimdShaSigma3            0      0.00%     68.39% # Class of committed instruction (Count)
system.cpu.commit.committedInstType_0::SimdPredAlu            0      0.00%     68.39% # Class of committed instruction (Count)
system.cpu.commit.committedInstType_0::Matrix            0      0.00%     68.39% # Class of committed instruction (Count)
system.cpu.commit.committedInstType_0::MatrixMov            0      0.00%     68.39% # Class of committed instruction (Count)
system.cpu.commit.committedInstType_0::MatrixOP            0      0.00%     68.39% # Class of committed instruction (Count)
system.cpu.commit.committedInstType_0::MemRead     62331791     19.94%     88.33% # Class of committed instruction (Count)
system.cpu.commit.committedInstType_0::MemWrite     36477782     11.67%    100.00% # Class of committed instruction (Count)
system.cpu.commit.committedInstType_0::FloatMemRead            0      0.00%    100.00% # Class of committed instruction (Count)
system.cpu.commit.committedInstType_0::FloatMemWrite            0      0.00%    100.00% # Class of committed instruction (Count)
system.cpu.commit.committedInstType_0::IprAccess            0      0.00%    100.00% # Class of committed instruction (Count)
system.cpu.commit.committedInstType_0::InstPrefetch            0      0.00%    100.00% # Class of committed instruction (Count)
system.cpu.commit.committedInstType_0::VectorUnitStrideLoad            0      0.00%    100.00% # Class of committed instruction (Count)
system.cpu.commit.committedInstType_0::VectorUnitStrideStore            0      0.00%    100.00% # Class of committed instruction (Count)
system.cpu.commit.committedInstType_0::VectorUnitStrideMaskLoad            0      0.00%    100.00% # Class of committed instruction (Count)
system.cpu.commit.committedInstType_0::VectorUnitStrideMaskStore            0      0.00%    100.00% # Class of committed instruction (Count)
system.cpu.commit.committedInstType_0::VectorStridedLoad            0      0.00%    100.00% # Class of committed instruction (Count)
system.cpu.commit.committedInstType_0::VectorStridedStore            0      0.00%    100.00% # Class of committed instruction (Count)
system.cpu.commit.committedInstType_0::VectorIndexedLoad            0      0.00%    100.00% # Class of committed instruction (Count)
system.cpu.commit.committedInstType_0::VectorIndexedStore            0      0.00%    100.00% # Class of committed instruction (Count)
system.cpu.commit.committedInstType_0::VectorUnitStrideFaultOnlyFirstLoad            0      0.00%    100.00% # Class of committed instruction (Count)
system.cpu.commit.committedInstType_0::VectorWholeRegisterLoad            0      0.00%    100.00% # Class of committed instruction (Count)
system.cpu.commit.committedInstType_0::VectorWholeRegisterStore            0      0.00%    100.00% # Class of committed instruction (Count)
system.cpu.commit.committedInstType_0::VectorIntegerArith            0      0.00%    100.00% # Class of committed instruction (Count)
system.cpu.commit.committedInstType_0::VectorFloatArith            0      0.00%    100.00% # Class of committed instruction (Count)
system.cpu.commit.committedInstType_0::VectorFloatConvert            0      0.00%    100.00% # Class of committed instruction (Count)
system.cpu.commit.committedInstType_0::VectorIntegerReduce            0      0.00%    100.00% # Class of committed instruction (Count)
system.cpu.commit.committedInstType_0::VectorFloatReduce            0      0.00%    100.00% # Class of committed instruction (Count)
system.cpu.commit.committedInstType_0::VectorMisc            0      0.00%    100.00% # Class of committed instruction (Count)
system.cpu.commit.committedInstType_0::VectorIntegerExtension            0      0.00%    100.00% # Class of committed instruction (Count)
system.cpu.commit.committedInstType_0::VectorConfig            0      0.00%    100.00% # Class of committed instruction (Count)
system.cpu.commit.committedInstType_0::total    312572703                       # Class of committed instruction (Count)
system.cpu.commit.commitEligibleSamples      47717609                       # number cycles where commit BW limit reached (Cycle)
system.cpu.commitStats0.numInsts            261355305                       # Number of instructions committed (thread level) (Count)
system.cpu.commitStats0.numOps              312572703                       # Number of ops (including micro ops) committed (thread level) (Count)
system.cpu.commitStats0.numInstsNotNOP      261123638                       # Number of instructions committed excluding NOPs or prefetches (Count)
system.cpu.commitStats0.numOpsNotNOP        312341036                       # Number of Ops (including micro ops) Simulated (Count)
system.cpu.commitStats0.cpi                  0.891204                       # CPI: cycles per instruction (thread level) ((Cycle/Count))
system.cpu.commitStats0.ipc                  1.122077                       # IPC: instructions per cycle (thread level) ((Count/Cycle))
system.cpu.commitStats0.numMemRefs           98809573                       # Number of memory references committed (Count)
system.cpu.commitStats0.numFpInsts                  0                       # Number of float instructions (Count)
system.cpu.commitStats0.numIntInsts         252033172                       # Number of integer instructions (Count)
system.cpu.commitStats0.numLoadInsts         62331791                       # Number of load instructions (Count)
system.cpu.commitStats0.numStoreInsts        36477782                       # Number of store instructions (Count)
system.cpu.commitStats0.numVecInsts          54636315                       # Number of vector instructions (Count)
system.cpu.commitStats0.committedInstType::No_OpClass      4622821      1.48%      1.48% # Class of committed instruction. (Count)
system.cpu.commitStats0.committedInstType::IntAlu    169456037     54.21%     55.69% # Class of committed instruction. (Count)
system.cpu.commitStats0.committedInstType::IntMult      1797859      0.58%     56.27% # Class of committed instruction. (Count)
system.cpu.commitStats0.committedInstType::IntDiv        91419      0.03%     56.30% # Class of committed instruction. (Count)
system.cpu.commitStats0.committedInstType::FloatAdd          604      0.00%     56.30% # Class of committed instruction. (Count)
system.cpu.commitStats0.committedInstType::FloatCmp            4      0.00%     56.30% # Class of committed instruction. (Count)
system.cpu.commitStats0.committedInstType::FloatCvt          605      0.00%     56.30% # Class of committed instruction. (Count)
system.cpu.commitStats0.committedInstType::FloatMult            0      0.00%     56.30% # Class of committed instruction. (Count)
system.cpu.commitStats0.committedInstType::FloatMultAcc            0      0.00%     56.30% # Class of committed instruction. (Count)
system.cpu.commitStats0.committedInstType::FloatDiv          606      0.00%     56.30% # Class of committed instruction. (Count)
system.cpu.commitStats0.committedInstType::FloatMisc         6515      0.00%     56.30% # Class of committed instruction. (Count)
system.cpu.commitStats0.committedInstType::FloatSqrt            0      0.00%     56.30% # Class of committed instruction. (Count)
system.cpu.commitStats0.committedInstType::SimdAdd     15769927      5.05%     61.34% # Class of committed instruction. (Count)
system.cpu.commitStats0.committedInstType::SimdAddAcc      3381077      1.08%     62.43% # Class of committed instruction. (Count)
system.cpu.commitStats0.committedInstType::SimdAlu      5207853      1.67%     64.09% # Class of committed instruction. (Count)
system.cpu.commitStats0.committedInstType::SimdCmp      1592829      0.51%     64.60% # Class of committed instruction. (Count)
system.cpu.commitStats0.committedInstType::SimdCvt            1      0.00%     64.60% # Class of committed instruction. (Count)
system.cpu.commitStats0.committedInstType::SimdMisc      4483103      1.43%     66.04% # Class of committed instruction. (Count)
system.cpu.commitStats0.committedInstType::SimdMult       408442      0.13%     66.17% # Class of committed instruction. (Count)
system.cpu.commitStats0.committedInstType::SimdMultAcc      2870682      0.92%     67.09% # Class of committed instruction. (Count)
system.cpu.commitStats0.committedInstType::SimdMatMultAcc            0      0.00%     67.09% # Class of committed instruction. (Count)
system.cpu.commitStats0.committedInstType::SimdShift      4072746      1.30%     68.39% # Class of committed instruction. (Count)
system.cpu.commitStats0.committedInstType::SimdShiftAcc            0      0.00%     68.39% # Class of committed instruction. (Count)
system.cpu.commitStats0.committedInstType::SimdDiv            0      0.00%     68.39% # Class of committed instruction. (Count)
system.cpu.commitStats0.committedInstType::SimdSqrt            0      0.00%     68.39% # Class of committed instruction. (Count)
system.cpu.commitStats0.committedInstType::SimdFloatAdd            0      0.00%     68.39% # Class of committed instruction. (Count)
system.cpu.commitStats0.committedInstType::SimdFloatAlu            0      0.00%     68.39% # Class of committed instruction. (Count)
system.cpu.commitStats0.committedInstType::SimdFloatCmp            0      0.00%     68.39% # Class of committed instruction. (Count)
system.cpu.commitStats0.committedInstType::SimdFloatCvt            0      0.00%     68.39% # Class of committed instruction. (Count)
system.cpu.commitStats0.committedInstType::SimdFloatDiv            0      0.00%     68.39% # Class of committed instruction. (Count)
system.cpu.commitStats0.committedInstType::SimdFloatMisc            0      0.00%     68.39% # Class of committed instruction. (Count)
system.cpu.commitStats0.committedInstType::SimdFloatMult            0      0.00%     68.39% # Class of committed instruction. (Count)
system.cpu.commitStats0.committedInstType::SimdFloatMultAcc            0      0.00%     68.39% # Class of committed instruction. (Count)
system.cpu.commitStats0.committedInstType::SimdFloatMatMultAcc            0      0.00%     68.39% # Class of committed instruction. (Count)
system.cpu.commitStats0.committedInstType::SimdFloatSqrt            0      0.00%     68.39% # Class of committed instruction. (Count)
system.cpu.commitStats0.committedInstType::SimdReduceAdd            0      0.00%     68.39% # Class of committed instruction. (Count)
system.cpu.commitStats0.committedInstType::SimdReduceAlu            0      0.00%     68.39% # Class of committed instruction. (Count)
system.cpu.commitStats0.committedInstType::SimdReduceCmp            0      0.00%     68.39% # Class of committed instruction. (Count)
system.cpu.commitStats0.committedInstType::SimdFloatReduceAdd            0      0.00%     68.39% # Class of committed instruction. (Count)
system.cpu.commitStats0.committedInstType::SimdFloatReduceCmp            0      0.00%     68.39% # Class of committed instruction. (Count)
system.cpu.commitStats0.committedInstType::SimdAes            0      0.00%     68.39% # Class of committed instruction. (Count)
system.cpu.commitStats0.committedInstType::SimdAesMix            0      0.00%     68.39% # Class of committed instruction. (Count)
system.cpu.commitStats0.committedInstType::SimdSha1Hash            0      0.00%     68.39% # Class of committed instruction. (Count)
system.cpu.commitStats0.committedInstType::SimdSha1Hash2            0      0.00%     68.39% # Class of committed instruction. (Count)
system.cpu.commitStats0.committedInstType::SimdSha256Hash            0      0.00%     68.39% # Class of committed instruction. (Count)
system.cpu.commitStats0.committedInstType::SimdSha256Hash2            0      0.00%     68.39% # Class of committed instruction. (Count)
system.cpu.commitStats0.committedInstType::SimdShaSigma2            0      0.00%     68.39% # Class of committed instruction. (Count)
system.cpu.commitStats0.committedInstType::SimdShaSigma3            0      0.00%     68.39% # Class of committed instruction. (Count)
system.cpu.commitStats0.committedInstType::SimdPredAlu            0      0.00%     68.39% # Class of committed instruction. (Count)
system.cpu.commitStats0.committedInstType::Matrix            0      0.00%     68.39% # Class of committed instruction. (Count)
system.cpu.commitStats0.committedInstType::MatrixMov            0      0.00%     68.39% # Class of committed instruction. (Count)
system.cpu.commitStats0.committedInstType::MatrixOP            0      0.00%     68.39% # Class of committed instruction. (Count)
system.cpu.commitStats0.committedInstType::MemRead     62331791     19.94%     88.33% # Class of committed instruction. (Count)
system.cpu.commitStats0.committedInstType::MemWrite     36477782     11.67%    100.00% # Class of committed instruction. (Count)
system.cpu.commitStats0.committedInstType::FloatMemRead            0      0.00%    100.00% # Class of committed instruction. (Count)
system.cpu.commitStats0.committedInstType::FloatMemWrite            0      0.00%    100.00% # Class of committed instruction. (Count)
system.cpu.commitStats0.committedInstType::IprAccess            0      0.00%    100.00% # Class of committed instruction. (Count)
system.cpu.commitStats0.committedInstType::InstPrefetch            0      0.00%    100.00% # Class of committed instruction. (Count)
system.cpu.commitStats0.committedInstType::VectorUnitStrideLoad            0      0.00%    100.00% # Class of committed instruction. (Count)
system.cpu.commitStats0.committedInstType::VectorUnitStrideStore            0      0.00%    100.00% # Class of committed instruction. (Count)
system.cpu.commitStats0.committedInstType::VectorUnitStrideMaskLoad            0      0.00%    100.00% # Class of committed instruction. (Count)
system.cpu.commitStats0.committedInstType::VectorUnitStrideMaskStore            0      0.00%    100.00% # Class of committed instruction. (Count)
system.cpu.commitStats0.committedInstType::VectorStridedLoad            0      0.00%    100.00% # Class of committed instruction. (Count)
system.cpu.commitStats0.committedInstType::VectorStridedStore            0      0.00%    100.00% # Class of committed instruction. (Count)
system.cpu.commitStats0.committedInstType::VectorIndexedLoad            0      0.00%    100.00% # Class of committed instruction. (Count)
system.cpu.commitStats0.committedInstType::VectorIndexedStore            0      0.00%    100.00% # Class of committed instruction. (Count)
system.cpu.commitStats0.committedInstType::VectorUnitStrideFaultOnlyFirstLoad            0      0.00%    100.00% # Class of committed instruction. (Count)
system.cpu.commitStats0.committedInstType::VectorWholeRegisterLoad            0      0.00%    100.00% # Class of committed instruction. (Count)
system.cpu.commitStats0.committedInstType::VectorWholeRegisterStore            0      0.00%    100.00% # Class of committed instruction. (Count)
system.cpu.commitStats0.committedInstType::VectorIntegerArith            0      0.00%    100.00% # Class of committed instruction. (Count)
system.cpu.commitStats0.committedInstType::VectorFloatArith            0      0.00%    100.00% # Class of committed instruction. (Count)
system.cpu.commitStats0.committedInstType::VectorFloatConvert            0      0.00%    100.00% # Class of committed instruction. (Count)
system.cpu.commitStats0.committedInstType::VectorIntegerReduce            0      0.00%    100.00% # Class of committed instruction. (Count)
system.cpu.commitStats0.committedInstType::VectorFloatReduce            0      0.00%    100.00% # Class of committed instruction. (Count)
system.cpu.commitStats0.committedInstType::VectorMisc            0      0.00%    100.00% # Class of committed instruction. (Count)
system.cpu.commitStats0.committedInstType::VectorIntegerExtension            0      0.00%    100.00% # Class of committed instruction. (Count)
system.cpu.commitStats0.committedInstType::VectorConfig            0      0.00%    100.00% # Class of committed instruction. (Count)
system.cpu.commitStats0.committedInstType::total    312572703                       # Class of committed instruction. (Count)
system.cpu.commitStats0.committedControl::IsControl     31807267                       # Class of control type instructions committed (Count)
system.cpu.commitStats0.committedControl::IsDirectControl     28664133                       # Class of control type instructions committed (Count)
system.cpu.commitStats0.committedControl::IsIndirectControl      3143134                       # Class of control type instructions committed (Count)
system.cpu.commitStats0.committedControl::IsCondControl     23550913                       # Class of control type instructions committed (Count)
system.cpu.commitStats0.committedControl::IsUncondControl      8256354                       # Class of control type instructions committed (Count)
system.cpu.commitStats0.committedControl::IsCall      2271526                       # Class of control type instructions committed (Count)
system.cpu.commitStats0.committedControl::IsReturn      2271522                       # Class of control type instructions committed (Count)
system.cpu.dcache.demandHits::cpu.data       98009069                       # number of demand (read+write) hits (Count)
system.cpu.dcache.demandHits::total          98009069                       # number of demand (read+write) hits (Count)
system.cpu.dcache.overallHits::cpu.data      98058192                       # number of overall hits (Count)
system.cpu.dcache.overallHits::total         98058192                       # number of overall hits (Count)
system.cpu.dcache.demandMisses::cpu.data      3216931                       # number of demand (read+write) misses (Count)
system.cpu.dcache.demandMisses::total         3216931                       # number of demand (read+write) misses (Count)
system.cpu.dcache.overallMisses::cpu.data      3257647                       # number of overall misses (Count)
system.cpu.dcache.overallMisses::total        3257647                       # number of overall misses (Count)
system.cpu.dcache.demandMissLatency::cpu.data  37812627290                       # number of demand (read+write) miss ticks (Tick)
system.cpu.dcache.demandMissLatency::total  37812627290                       # number of demand (read+write) miss ticks (Tick)
system.cpu.dcache.overallMissLatency::cpu.data  37812627290                       # number of overall miss ticks (Tick)
system.cpu.dcache.overallMissLatency::total  37812627290                       # number of overall miss ticks (Tick)
system.cpu.dcache.demandAccesses::cpu.data    101226000                       # number of demand (read+write) accesses (Count)
system.cpu.dcache.demandAccesses::total     101226000                       # number of demand (read+write) accesses (Count)
system.cpu.dcache.overallAccesses::cpu.data    101315839                       # number of overall (read+write) accesses (Count)
system.cpu.dcache.overallAccesses::total    101315839                       # number of overall (read+write) accesses (Count)
system.cpu.dcache.demandMissRate::cpu.data     0.031780                       # miss rate for demand accesses (Ratio)
system.cpu.dcache.demandMissRate::total      0.031780                       # miss rate for demand accesses (Ratio)
system.cpu.dcache.overallMissRate::cpu.data     0.032153                       # miss rate for overall accesses (Ratio)
system.cpu.dcache.overallMissRate::total     0.032153                       # miss rate for overall accesses (Ratio)
system.cpu.dcache.demandAvgMissLatency::cpu.data 11754.255000                       # average overall miss latency in ticks ((Tick/Count))
system.cpu.dcache.demandAvgMissLatency::total 11754.255000                       # average overall miss latency in ticks ((Tick/Count))
system.cpu.dcache.overallAvgMissLatency::cpu.data 11607.343365                       # average overall miss latency ((Tick/Count))
system.cpu.dcache.overallAvgMissLatency::total 11607.343365                       # average overall miss latency ((Tick/Count))
system.cpu.dcache.blockedCycles::no_mshrs       530250                       # number of cycles access was blocked (Cycle)
system.cpu.dcache.blockedCycles::no_targets        62795                       # number of cycles access was blocked (Cycle)
system.cpu.dcache.blockedCauses::no_mshrs        55384                       # number of times access was blocked (Count)
system.cpu.dcache.blockedCauses::no_targets          935                       # number of times access was blocked (Count)
system.cpu.dcache.avgBlocked::no_mshrs       9.574065                       # average number of cycles each access was blocked ((Cycle/Count))
system.cpu.dcache.avgBlocked::no_targets    67.160428                       # average number of cycles each access was blocked ((Cycle/Count))
system.cpu.dcache.writebacks::writebacks      2108710                       # number of writebacks (Count)
system.cpu.dcache.writebacks::total           2108710                       # number of writebacks (Count)
system.cpu.dcache.demandMshrHits::cpu.data      1691925                       # number of demand (read+write) MSHR hits (Count)
system.cpu.dcache.demandMshrHits::total       1691925                       # number of demand (read+write) MSHR hits (Count)
system.cpu.dcache.overallMshrHits::cpu.data      1691925                       # number of overall MSHR hits (Count)
system.cpu.dcache.overallMshrHits::total      1691925                       # number of overall MSHR hits (Count)
system.cpu.dcache.demandMshrMisses::cpu.data      1525006                       # number of demand (read+write) MSHR misses (Count)
system.cpu.dcache.demandMshrMisses::total      1525006                       # number of demand (read+write) MSHR misses (Count)
system.cpu.dcache.overallMshrMisses::cpu.data      1565722                       # number of overall MSHR misses (Count)
system.cpu.dcache.overallMshrMisses::cpu.dcache.prefetcher       612121                       # number of overall MSHR misses (Count)
system.cpu.dcache.overallMshrMisses::total      2177843                       # number of overall MSHR misses (Count)
system.cpu.dcache.demandMshrMissLatency::cpu.data  16633974832                       # number of demand (read+write) MSHR miss ticks (Tick)
system.cpu.dcache.demandMshrMissLatency::total  16633974832                       # number of demand (read+write) MSHR miss ticks (Tick)
system.cpu.dcache.overallMshrMissLatency::cpu.data  16924972196                       # number of overall MSHR miss ticks (Tick)
system.cpu.dcache.overallMshrMissLatency::cpu.dcache.prefetcher   8641272784                       # number of overall MSHR miss ticks (Tick)
system.cpu.dcache.overallMshrMissLatency::total  25566244980                       # number of overall MSHR miss ticks (Tick)
system.cpu.dcache.demandMshrMissRate::cpu.data     0.015065                       # mshr miss ratio for demand accesses (Ratio)
system.cpu.dcache.demandMshrMissRate::total     0.015065                       # mshr miss ratio for demand accesses (Ratio)
system.cpu.dcache.overallMshrMissRate::cpu.data     0.015454                       # mshr miss ratio for overall accesses (Ratio)
system.cpu.dcache.overallMshrMissRate::cpu.dcache.prefetcher          inf                       # mshr miss ratio for overall accesses (Ratio)
system.cpu.dcache.overallMshrMissRate::total     0.021496                       # mshr miss ratio for overall accesses (Ratio)
system.cpu.dcache.demandAvgMshrMissLatency::cpu.data 10907.481565                       # average overall mshr miss latency ((Tick/Count))
system.cpu.dcache.demandAvgMshrMissLatency::total 10907.481565                       # average overall mshr miss latency ((Tick/Count))
system.cpu.dcache.overallAvgMshrMissLatency::cpu.data 10809.691756                       # average overall mshr miss latency ((Tick/Count))
system.cpu.dcache.overallAvgMshrMissLatency::cpu.dcache.prefetcher 14116.935678                       # average overall mshr miss latency ((Tick/Count))
system.cpu.dcache.overallAvgMshrMissLatency::total 11739.250708                       # average overall mshr miss latency ((Tick/Count))
system.cpu.dcache.replacements                2176067                       # number of replacements (Count)
system.cpu.dcache.HardPFReq.mshrMisses::cpu.dcache.prefetcher       612121                       # number of HardPFReq MSHR misses (Count)
system.cpu.dcache.HardPFReq.mshrMisses::total       612121                       # number of HardPFReq MSHR misses (Count)
system.cpu.dcache.HardPFReq.mshrMissLatency::cpu.dcache.prefetcher   8641272784                       # number of HardPFReq MSHR miss ticks (Tick)
system.cpu.dcache.HardPFReq.mshrMissLatency::total   8641272784                       # number of HardPFReq MSHR miss ticks (Tick)
system.cpu.dcache.HardPFReq.mshrMissRate::cpu.dcache.prefetcher          inf                       # mshr miss rate for HardPFReq accesses (Ratio)
system.cpu.dcache.HardPFReq.mshrMissRate::total          inf                       # mshr miss rate for HardPFReq accesses (Ratio)
system.cpu.dcache.HardPFReq.avgMshrMissLatency::cpu.dcache.prefetcher 14116.935678                       # average HardPFReq mshr miss latency ((Tick/Count))
system.cpu.dcache.HardPFReq.avgMshrMissLatency::total 14116.935678                       # average HardPFReq mshr miss latency ((Tick/Count))
system.cpu.dcache.LoadLockedReq.hits::cpu.data       172820                       # number of LoadLockedReq hits (Count)
system.cpu.dcache.LoadLockedReq.hits::total       172820                       # number of LoadLockedReq hits (Count)
system.cpu.dcache.LoadLockedReq.misses::cpu.data          309                       # number of LoadLockedReq misses (Count)
system.cpu.dcache.LoadLockedReq.misses::total          309                       # number of LoadLockedReq misses (Count)
system.cpu.dcache.LoadLockedReq.missLatency::cpu.data      3020696                       # number of LoadLockedReq miss ticks (Tick)
system.cpu.dcache.LoadLockedReq.missLatency::total      3020696                       # number of LoadLockedReq miss ticks (Tick)
system.cpu.dcache.LoadLockedReq.accesses::cpu.data       173129                       # number of LoadLockedReq accesses(hits+misses) (Count)
system.cpu.dcache.LoadLockedReq.accesses::total       173129                       # number of LoadLockedReq accesses(hits+misses) (Count)
system.cpu.dcache.LoadLockedReq.missRate::cpu.data     0.001785                       # miss rate for LoadLockedReq accesses (Ratio)
system.cpu.dcache.LoadLockedReq.missRate::total     0.001785                       # miss rate for LoadLockedReq accesses (Ratio)
system.cpu.dcache.LoadLockedReq.avgMissLatency::cpu.data  9775.715210                       # average LoadLockedReq miss latency ((Tick/Count))
system.cpu.dcache.LoadLockedReq.avgMissLatency::total  9775.715210                       # average LoadLockedReq miss latency ((Tick/Count))
system.cpu.dcache.LoadLockedReq.mshrHits::cpu.data          304                       # number of LoadLockedReq MSHR hits (Count)
system.cpu.dcache.LoadLockedReq.mshrHits::total          304                       # number of LoadLockedReq MSHR hits (Count)
system.cpu.dcache.LoadLockedReq.mshrMisses::cpu.data            5                       # number of LoadLockedReq MSHR misses (Count)
system.cpu.dcache.LoadLockedReq.mshrMisses::total            5                       # number of LoadLockedReq MSHR misses (Count)
system.cpu.dcache.LoadLockedReq.mshrMissLatency::cpu.data       527884                       # number of LoadLockedReq MSHR miss ticks (Tick)
system.cpu.dcache.LoadLockedReq.mshrMissLatency::total       527884                       # number of LoadLockedReq MSHR miss ticks (Tick)
system.cpu.dcache.LoadLockedReq.mshrMissRate::cpu.data     0.000029                       # mshr miss rate for LoadLockedReq accesses (Ratio)
system.cpu.dcache.LoadLockedReq.mshrMissRate::total     0.000029                       # mshr miss rate for LoadLockedReq accesses (Ratio)
system.cpu.dcache.LoadLockedReq.avgMshrMissLatency::cpu.data 105576.800000                       # average LoadLockedReq mshr miss latency ((Tick/Count))
system.cpu.dcache.LoadLockedReq.avgMshrMissLatency::total 105576.800000                       # average LoadLockedReq mshr miss latency ((Tick/Count))
system.cpu.dcache.ReadReq.hits::cpu.data     63240688                       # number of ReadReq hits (Count)
system.cpu.dcache.ReadReq.hits::total        63240688                       # number of ReadReq hits (Count)
system.cpu.dcache.ReadReq.misses::cpu.data      1536366                       # number of ReadReq misses (Count)
system.cpu.dcache.ReadReq.misses::total       1536366                       # number of ReadReq misses (Count)
system.cpu.dcache.ReadReq.missLatency::cpu.data  14812313656                       # number of ReadReq miss ticks (Tick)
system.cpu.dcache.ReadReq.missLatency::total  14812313656                       # number of ReadReq miss ticks (Tick)
system.cpu.dcache.ReadReq.accesses::cpu.data     64777054                       # number of ReadReq accesses(hits+misses) (Count)
system.cpu.dcache.ReadReq.accesses::total     64777054                       # number of ReadReq accesses(hits+misses) (Count)
system.cpu.dcache.ReadReq.missRate::cpu.data     0.023718                       # miss rate for ReadReq accesses (Ratio)
system.cpu.dcache.ReadReq.missRate::total     0.023718                       # miss rate for ReadReq accesses (Ratio)
system.cpu.dcache.ReadReq.avgMissLatency::cpu.data  9641.136068                       # average ReadReq miss latency ((Tick/Count))
system.cpu.dcache.ReadReq.avgMissLatency::total  9641.136068                       # average ReadReq miss latency ((Tick/Count))
system.cpu.dcache.ReadReq.mshrHits::cpu.data       615553                       # number of ReadReq MSHR hits (Count)
system.cpu.dcache.ReadReq.mshrHits::total       615553                       # number of ReadReq MSHR hits (Count)
system.cpu.dcache.ReadReq.mshrMisses::cpu.data       920813                       # number of ReadReq MSHR misses (Count)
system.cpu.dcache.ReadReq.mshrMisses::total       920813                       # number of ReadReq MSHR misses (Count)
system.cpu.dcache.ReadReq.mshrMissLatency::cpu.data   7432920880                       # number of ReadReq MSHR miss ticks (Tick)
system.cpu.dcache.ReadReq.mshrMissLatency::total   7432920880                       # number of ReadReq MSHR miss ticks (Tick)
system.cpu.dcache.ReadReq.mshrMissRate::cpu.data     0.014215                       # mshr miss rate for ReadReq accesses (Ratio)
system.cpu.dcache.ReadReq.mshrMissRate::total     0.014215                       # mshr miss rate for ReadReq accesses (Ratio)
system.cpu.dcache.ReadReq.avgMshrMissLatency::cpu.data  8072.128521                       # average ReadReq mshr miss latency ((Tick/Count))
system.cpu.dcache.ReadReq.avgMshrMissLatency::total  8072.128521                       # average ReadReq mshr miss latency ((Tick/Count))
system.cpu.dcache.SoftPFReq.hits::cpu.data        49123                       # number of SoftPFReq hits (Count)
system.cpu.dcache.SoftPFReq.hits::total         49123                       # number of SoftPFReq hits (Count)
system.cpu.dcache.SoftPFReq.misses::cpu.data        40716                       # number of SoftPFReq misses (Count)
system.cpu.dcache.SoftPFReq.misses::total        40716                       # number of SoftPFReq misses (Count)
system.cpu.dcache.SoftPFReq.accesses::cpu.data        89839                       # number of SoftPFReq accesses(hits+misses) (Count)
system.cpu.dcache.SoftPFReq.accesses::total        89839                       # number of SoftPFReq accesses(hits+misses) (Count)
system.cpu.dcache.SoftPFReq.missRate::cpu.data     0.453211                       # miss rate for SoftPFReq accesses (Ratio)
system.cpu.dcache.SoftPFReq.missRate::total     0.453211                       # miss rate for SoftPFReq accesses (Ratio)
system.cpu.dcache.SoftPFReq.mshrMisses::cpu.data        40716                       # number of SoftPFReq MSHR misses (Count)
system.cpu.dcache.SoftPFReq.mshrMisses::total        40716                       # number of SoftPFReq MSHR misses (Count)
system.cpu.dcache.SoftPFReq.mshrMissLatency::cpu.data    290997364                       # number of SoftPFReq MSHR miss ticks (Tick)
system.cpu.dcache.SoftPFReq.mshrMissLatency::total    290997364                       # number of SoftPFReq MSHR miss ticks (Tick)
system.cpu.dcache.SoftPFReq.mshrMissRate::cpu.data     0.453211                       # mshr miss rate for SoftPFReq accesses (Ratio)
system.cpu.dcache.SoftPFReq.mshrMissRate::total     0.453211                       # mshr miss rate for SoftPFReq accesses (Ratio)
system.cpu.dcache.SoftPFReq.avgMshrMissLatency::cpu.data  7147.002751                       # average SoftPFReq mshr miss latency ((Tick/Count))
system.cpu.dcache.SoftPFReq.avgMshrMissLatency::total  7147.002751                       # average SoftPFReq mshr miss latency ((Tick/Count))
system.cpu.dcache.StoreCondReq.hits::cpu.data       172885                       # number of StoreCondReq hits (Count)
system.cpu.dcache.StoreCondReq.hits::total       172885                       # number of StoreCondReq hits (Count)
system.cpu.dcache.StoreCondReq.misses::cpu.data            3                       # number of StoreCondReq misses (Count)
system.cpu.dcache.StoreCondReq.misses::total            3                       # number of StoreCondReq misses (Count)
system.cpu.dcache.StoreCondReq.missLatency::cpu.data        27132                       # number of StoreCondReq miss ticks (Tick)
system.cpu.dcache.StoreCondReq.missLatency::total        27132                       # number of StoreCondReq miss ticks (Tick)
system.cpu.dcache.StoreCondReq.accesses::cpu.data       172888                       # number of StoreCondReq accesses(hits+misses) (Count)
system.cpu.dcache.StoreCondReq.accesses::total       172888                       # number of StoreCondReq accesses(hits+misses) (Count)
system.cpu.dcache.StoreCondReq.missRate::cpu.data     0.000017                       # miss rate for StoreCondReq accesses (Ratio)
system.cpu.dcache.StoreCondReq.missRate::total     0.000017                       # miss rate for StoreCondReq accesses (Ratio)
system.cpu.dcache.StoreCondReq.avgMissLatency::cpu.data         9044                       # average StoreCondReq miss latency ((Tick/Count))
system.cpu.dcache.StoreCondReq.avgMissLatency::total         9044                       # average StoreCondReq miss latency ((Tick/Count))
system.cpu.dcache.StoreCondReq.mshrMisses::cpu.data            3                       # number of StoreCondReq MSHR misses (Count)
system.cpu.dcache.StoreCondReq.mshrMisses::total            3                       # number of StoreCondReq MSHR misses (Count)
system.cpu.dcache.StoreCondReq.mshrMissLatency::cpu.data        21420                       # number of StoreCondReq MSHR miss ticks (Tick)
system.cpu.dcache.StoreCondReq.mshrMissLatency::total        21420                       # number of StoreCondReq MSHR miss ticks (Tick)
system.cpu.dcache.StoreCondReq.mshrMissRate::cpu.data     0.000017                       # mshr miss rate for StoreCondReq accesses (Ratio)
system.cpu.dcache.StoreCondReq.mshrMissRate::total     0.000017                       # mshr miss rate for StoreCondReq accesses (Ratio)
system.cpu.dcache.StoreCondReq.avgMshrMissLatency::cpu.data         7140                       # average StoreCondReq mshr miss latency ((Tick/Count))
system.cpu.dcache.StoreCondReq.avgMshrMissLatency::total         7140                       # average StoreCondReq mshr miss latency ((Tick/Count))
system.cpu.dcache.WriteLineReq.hits::cpu.data        81435                       # number of WriteLineReq hits (Count)
system.cpu.dcache.WriteLineReq.hits::total        81435                       # number of WriteLineReq hits (Count)
system.cpu.dcache.WriteLineReq.misses::cpu.data       205771                       # number of WriteLineReq misses (Count)
system.cpu.dcache.WriteLineReq.misses::total       205771                       # number of WriteLineReq misses (Count)
system.cpu.dcache.WriteLineReq.missLatency::cpu.data   7666261552                       # number of WriteLineReq miss ticks (Tick)
system.cpu.dcache.WriteLineReq.missLatency::total   7666261552                       # number of WriteLineReq miss ticks (Tick)
system.cpu.dcache.WriteLineReq.accesses::cpu.data       287206                       # number of WriteLineReq accesses(hits+misses) (Count)
system.cpu.dcache.WriteLineReq.accesses::total       287206                       # number of WriteLineReq accesses(hits+misses) (Count)
system.cpu.dcache.WriteLineReq.missRate::cpu.data     0.716458                       # miss rate for WriteLineReq accesses (Ratio)
system.cpu.dcache.WriteLineReq.missRate::total     0.716458                       # miss rate for WriteLineReq accesses (Ratio)
system.cpu.dcache.WriteLineReq.avgMissLatency::cpu.data 37256.277862                       # average WriteLineReq miss latency ((Tick/Count))
system.cpu.dcache.WriteLineReq.avgMissLatency::total 37256.277862                       # average WriteLineReq miss latency ((Tick/Count))
system.cpu.dcache.WriteLineReq.mshrHits::cpu.data        72324                       # number of WriteLineReq MSHR hits (Count)
system.cpu.dcache.WriteLineReq.mshrHits::total        72324                       # number of WriteLineReq MSHR hits (Count)
system.cpu.dcache.WriteLineReq.mshrMisses::cpu.data       133447                       # number of WriteLineReq MSHR misses (Count)
system.cpu.dcache.WriteLineReq.mshrMisses::total       133447                       # number of WriteLineReq MSHR misses (Count)
system.cpu.dcache.WriteLineReq.mshrMissLatency::cpu.data   4230428825                       # number of WriteLineReq MSHR miss ticks (Tick)
system.cpu.dcache.WriteLineReq.mshrMissLatency::total   4230428825                       # number of WriteLineReq MSHR miss ticks (Tick)
system.cpu.dcache.WriteLineReq.mshrMissRate::cpu.data     0.464639                       # mshr miss rate for WriteLineReq accesses (Ratio)
system.cpu.dcache.WriteLineReq.mshrMissRate::total     0.464639                       # mshr miss rate for WriteLineReq accesses (Ratio)
system.cpu.dcache.WriteLineReq.avgMshrMissLatency::cpu.data 31701.190922                       # average WriteLineReq mshr miss latency ((Tick/Count))
system.cpu.dcache.WriteLineReq.avgMshrMissLatency::total 31701.190922                       # average WriteLineReq mshr miss latency ((Tick/Count))
system.cpu.dcache.WriteReq.hits::cpu.data     34686946                       # number of WriteReq hits (Count)
system.cpu.dcache.WriteReq.hits::total       34686946                       # number of WriteReq hits (Count)
[...]
system.mem_ctrl.dram.numReads::total            36683                       # Number of read requests responded to by this memory (Count)
system.mem_ctrl.dram.numWrites::writebacks        46344                       # Number of write requests responded to by this memory (Count)
system.mem_ctrl.dram.numWrites::total           46344                       # Number of write requests responded to by this memory (Count)
system.mem_ctrl.dram.bwRead::cpu.inst         2007678                       # Total read bandwidth from this memory ((Byte/Second))
system.mem_ctrl.dram.bwRead::cpu.data         1705776                       # Total read bandwidth from this memory ((Byte/Second))
system.mem_ctrl.dram.bwRead::cpu.dcache.prefetcher      6666669                       # Total read bandwidth from this memory ((Byte/Second))
system.mem_ctrl.dram.bwRead::cpu.l2cache.prefetcher     10795166                       # Total read bandwidth from this memory ((Byte/Second))
system.mem_ctrl.dram.bwRead::total           21175289                       # Total read bandwidth from this memory ((Byte/Second))
system.mem_ctrl.dram.bwInstRead::cpu.inst      2007678                       # Instruction read bandwidth from this memory ((Byte/Second))
system.mem_ctrl.dram.bwInstRead::total        2007678                       # Instruction read bandwidth from this memory ((Byte/Second))
system.mem_ctrl.dram.bwWrite::writebacks     26752108                       # Write bandwidth from this memory ((Byte/Second))
system.mem_ctrl.dram.bwWrite::total          26752108                       # Write bandwidth from this memory ((Byte/Second))
system.mem_ctrl.dram.bwTotal::writebacks     26752108                       # Total bandwidth to/from this memory ((Byte/Second))
system.mem_ctrl.dram.bwTotal::cpu.inst        2007678                       # Total bandwidth to/from this memory ((Byte/Second))
system.mem_ctrl.dram.bwTotal::cpu.data        1705776                       # Total bandwidth to/from this memory ((Byte/Second))
system.mem_ctrl.dram.bwTotal::cpu.dcache.prefetcher      6666669                       # Total bandwidth to/from this memory ((Byte/Second))
system.mem_ctrl.dram.bwTotal::cpu.l2cache.prefetcher     10795166                       # Total bandwidth to/from this memory ((Byte/Second))
system.mem_ctrl.dram.bwTotal::total          47927396                       # Total bandwidth to/from this memory ((Byte/Second))
system.mem_ctrl.dram.readBursts                 36683                       # Number of DRAM read bursts (Count)
system.mem_ctrl.dram.writeBursts                46325                       # Number of DRAM write bursts (Count)
system.mem_ctrl.dram.perBankRdBursts::0          2130                       # Per bank write bursts (Count)
system.mem_ctrl.dram.perBankRdBursts::1          2196                       # Per bank write bursts (Count)
system.mem_ctrl.dram.perBankRdBursts::2          2118                       # Per bank write bursts (Count)
system.mem_ctrl.dram.perBankRdBursts::3          2412                       # Per bank write bursts (Count)
system.mem_ctrl.dram.perBankRdBursts::4          2182                       # Per bank write bursts (Count)
system.mem_ctrl.dram.perBankRdBursts::5          2211                       # Per bank write bursts (Count)
system.mem_ctrl.dram.perBankRdBursts::6          2240                       # Per bank write bursts (Count)
system.mem_ctrl.dram.perBankRdBursts::7          2255                       # Per bank write bursts (Count)
system.mem_ctrl.dram.perBankRdBursts::8          2530                       # Per bank write bursts (Count)
system.mem_ctrl.dram.perBankRdBursts::9          2608                       # Per bank write bursts (Count)
system.mem_ctrl.dram.perBankRdBursts::10         2458                       # Per bank write bursts (Count)
system.mem_ctrl.dram.perBankRdBursts::11         2212                       # Per bank write bursts (Count)
system.mem_ctrl.dram.perBankRdBursts::12         2194                       # Per bank write bursts (Count)
system.mem_ctrl.dram.perBankRdBursts::13         2293                       # Per bank write bursts (Count)
system.mem_ctrl.dram.perBankRdBursts::14         2380                       # Per bank write bursts (Count)
system.mem_ctrl.dram.perBankRdBursts::15         2264                       # Per bank write bursts (Count)
system.mem_ctrl.dram.perBankWrBursts::0          2750                       # Per bank write bursts (Count)
system.mem_ctrl.dram.perBankWrBursts::1          2771                       # Per bank write bursts (Count)
system.mem_ctrl.dram.perBankWrBursts::2          2787                       # Per bank write bursts (Count)
system.mem_ctrl.dram.perBankWrBursts::3          2982                       # Per bank write bursts (Count)
system.mem_ctrl.dram.perBankWrBursts::4          2743                       # Per bank write bursts (Count)
system.mem_ctrl.dram.perBankWrBursts::5          2769                       # Per bank write bursts (Count)
system.mem_ctrl.dram.perBankWrBursts::6          2828                       # Per bank write bursts (Count)
system.mem_ctrl.dram.perBankWrBursts::7          2858                       # Per bank write bursts (Count)
system.mem_ctrl.dram.perBankWrBursts::8          3090                       # Per bank write bursts (Count)
system.mem_ctrl.dram.perBankWrBursts::9          3332                       # Per bank write bursts (Count)
system.mem_ctrl.dram.perBankWrBursts::10         3153                       # Per bank write bursts (Count)
system.mem_ctrl.dram.perBankWrBursts::11         2763                       # Per bank write bursts (Count)
system.mem_ctrl.dram.perBankWrBursts::12         2800                       # Per bank write bursts (Count)
system.mem_ctrl.dram.perBankWrBursts::13         2941                       # Per bank write bursts (Count)
system.mem_ctrl.dram.perBankWrBursts::14         2901                       # Per bank write bursts (Count)
system.mem_ctrl.dram.perBankWrBursts::15         2857                       # Per bank write bursts (Count)
system.mem_ctrl.dram.totQLat               2460703426                       # Total ticks spent queuing (Tick)
system.mem_ctrl.dram.totBusLat              183415000                       # Total ticks spent in databus transfers (Tick)
system.mem_ctrl.dram.totMemAccLat          3148509676                       # Total ticks spent from burst creation until serviced by the DRAM (Tick)
system.mem_ctrl.dram.avgQLat                 67080.21                       # Average queueing delay per DRAM burst ((Tick/Count))
system.mem_ctrl.dram.avgBusLat                5000.00                       # Average bus latency per DRAM burst ((Tick/Count))
system.mem_ctrl.dram.avgMemAccLat            85830.21                       # Average memory access latency per DRAM burst ((Tick/Count))
system.mem_ctrl.dram.readRowHits                31803                       # Number of row buffer hits during reads (Count)
system.mem_ctrl.dram.writeRowHits               35340                       # Number of row buffer hits during writes (Count)
system.mem_ctrl.dram.readRowHitRate             86.70                       # Row buffer hit rate for reads (Ratio)
system.mem_ctrl.dram.writeRowHitRate            76.29                       # Row buffer hit rate for writes (Ratio)
system.mem_ctrl.dram.bytesPerActivate::samples        15859                       # Bytes accessed per row activation (Byte)
system.mem_ctrl.dram.bytesPerActivate::mean   334.959834                       # Bytes accessed per row activation (Byte)
system.mem_ctrl.dram.bytesPerActivate::gmean   205.862486                       # Bytes accessed per row activation (Byte)
system.mem_ctrl.dram.bytesPerActivate::stdev   328.037095                       # Bytes accessed per row activation (Byte)
system.mem_ctrl.dram.bytesPerActivate::0-127         4946     31.19%     31.19% # Bytes accessed per row activation (Byte)
system.mem_ctrl.dram.bytesPerActivate::128-255         3721     23.46%     54.65% # Bytes accessed per row activation (Byte)
system.mem_ctrl.dram.bytesPerActivate::256-383         1941     12.24%     66.89% # Bytes accessed per row activation (Byte)
system.mem_ctrl.dram.bytesPerActivate::384-511         1405      8.86%     75.75% # Bytes accessed per row activation (Byte)
system.mem_ctrl.dram.bytesPerActivate::512-639          670      4.22%     79.97% # Bytes accessed per row activation (Byte)
system.mem_ctrl.dram.bytesPerActivate::640-767          441      2.78%     82.75% # Bytes accessed per row activation (Byte)
system.mem_ctrl.dram.bytesPerActivate::768-895          553      3.49%     86.24% # Bytes accessed per row activation (Byte)
system.mem_ctrl.dram.bytesPerActivate::896-1023          185      1.17%     87.41% # Bytes accessed per row activation (Byte)
system.mem_ctrl.dram.bytesPerActivate::1024-1151         1997     12.59%    100.00% # Bytes accessed per row activation (Byte)
system.mem_ctrl.dram.bytesPerActivate::total        15859                       # Bytes accessed per row activation (Byte)
system.mem_ctrl.dram.bytesRead                2347712                       # Total bytes read (Byte)
system.mem_ctrl.dram.bytesWritten             2964800                       # Total bytes written (Byte)
system.mem_ctrl.dram.avgRdBW                21.175289                       # Average DRAM read bandwidth in MiBytes/s ((Byte/Second))
system.mem_ctrl.dram.avgWrBW                26.741140                       # Average DRAM write bandwidth in MiBytes/s ((Byte/Second))
system.mem_ctrl.dram.peakBW                  12800.00                       # Theoretical peak bandwidth in MiByte/s ((Byte/Second))
system.mem_ctrl.dram.busUtil                     0.37                       # Data bus utilization in percentage (Ratio)
system.mem_ctrl.dram.busUtilRead                 0.17                       # Data bus utilization in percentage for reads (Ratio)
system.mem_ctrl.dram.busUtilWrite                0.21                       # Data bus utilization in percentage for writes (Ratio)
system.mem_ctrl.dram.pageHitRate                80.89                       # Row buffer hit rate, read and write combined (Ratio)
system.mem_ctrl.dram.power_state.pwrStateResidencyTicks::UNDEFINED 110870366488                       # Cumulative time (in ticks) in various power states (Tick)
system.mem_ctrl.dram.rank0.actEnergy         56034720                       # Energy for activate commands per rank (pJ) (Joule)
system.mem_ctrl.dram.rank0.preEnergy         29771775                       # Energy for precharge commands per rank (pJ) (Joule)
system.mem_ctrl.dram.rank0.readEnergy       126692160                       # Energy for read commands per rank (pJ) (Joule)
system.mem_ctrl.dram.rank0.writeEnergy      117387360                       # Energy for write commands per rank (pJ) (Joule)
system.mem_ctrl.dram.rank0.refreshEnergy 8751858960.000002                       # Energy for refresh commands per rank (pJ) (Joule)
system.mem_ctrl.dram.rank0.actBackEnergy   3281256300                       # Energy for active background per rank (pJ) (Joule)
system.mem_ctrl.dram.rank0.preBackEnergy  39811057920                       # Energy for precharge background per rank (pJ) (Joule)
system.mem_ctrl.dram.rank0.actPowerDownEnergy            0                       # Energy for active power-down per rank (pJ) (Joule)
system.mem_ctrl.dram.rank0.prePowerDownEnergy            0                       # Energy for precharge power-down per rank (pJ) (Joule)
system.mem_ctrl.dram.rank0.selfRefreshEnergy            0                       # Energy for self refresh per rank (pJ) (Joule)
system.mem_ctrl.dram.rank0.totalEnergy    52174059195                       # Total energy per rank (pJ) (Joule)
system.mem_ctrl.dram.rank0.averagePower    470.586153                       # Core power per rank (mW) (Watt)
system.mem_ctrl.dram.rank0.totalIdleTime            0                       # Total Idle time Per DRAM Rank (Tick)
system.mem_ctrl.dram.rank0.pwrStateTime::IDLE 103457694810                       # Time in different power states (Tick)
system.mem_ctrl.dram.rank0.pwrStateTime::REF   3702140000                       # Time in different power states (Tick)
system.mem_ctrl.dram.rank0.pwrStateTime::SREF            0                       # Time in different power states (Tick)
system.mem_ctrl.dram.rank0.pwrStateTime::PRE_PDN            0                       # Time in different power states (Tick)
system.mem_ctrl.dram.rank0.pwrStateTime::ACT   3710531678                       # Time in different power states (Tick)
system.mem_ctrl.dram.rank0.pwrStateTime::ACT_PDN            0                       # Time in different power states (Tick)
system.mem_ctrl.dram.rank1.actEnergy         57241380                       # Energy for activate commands per rank (pJ) (Joule)
system.mem_ctrl.dram.rank1.preEnergy         30413130                       # Energy for precharge commands per rank (pJ) (Joule)
system.mem_ctrl.dram.rank1.readEnergy       135224460                       # Energy for read commands per rank (pJ) (Joule)
system.mem_ctrl.dram.rank1.writeEnergy      124429140                       # Energy for write commands per rank (pJ) (Joule)
system.mem_ctrl.dram.rank1.refreshEnergy 8751858960.000002                       # Energy for refresh commands per rank (pJ) (Joule)
system.mem_ctrl.dram.rank1.actBackEnergy   3231458820                       # Energy for active background per rank (pJ) (Joule)
system.mem_ctrl.dram.rank1.preBackEnergy  39852992640                       # Energy for precharge background per rank (pJ) (Joule)
system.mem_ctrl.dram.rank1.actPowerDownEnergy            0                       # Energy for active power-down per rank (pJ) (Joule)
system.mem_ctrl.dram.rank1.prePowerDownEnergy            0                       # Energy for precharge power-down per rank (pJ) (Joule)
system.mem_ctrl.dram.rank1.selfRefreshEnergy            0                       # Energy for self refresh per rank (pJ) (Joule)
system.mem_ctrl.dram.rank1.totalEnergy    52183618530                       # Total energy per rank (pJ) (Joule)
system.mem_ctrl.dram.rank1.averagePower    470.672373                       # Core power per rank (mW) (Watt)
system.mem_ctrl.dram.rank1.totalIdleTime            0                       # Total Idle time Per DRAM Rank (Tick)
system.mem_ctrl.dram.rank1.pwrStateTime::IDLE 103568012474                       # Time in different power states (Tick)
system.mem_ctrl.dram.rank1.pwrStateTime::REF   3702140000                       # Time in different power states (Tick)
system.mem_ctrl.dram.rank1.pwrStateTime::SREF            0                       # Time in different power states (Tick)
system.mem_ctrl.dram.rank1.pwrStateTime::PRE_PDN            0                       # Time in different power states (Tick)
system.mem_ctrl.dram.rank1.pwrStateTime::ACT   3600214014                       # Time in different power states (Tick)
system.mem_ctrl.dram.rank1.pwrStateTime::ACT_PDN            0                       # Time in different power states (Tick)
system.mem_ctrl.power_state.pwrStateResidencyTicks::UNDEFINED 110870366488                       # Cumulative time (in ticks) in various power states (Tick)
system.membus.transDist::ReadResp               35174                       # Transaction distribution (Count)
system.membus.transDist::WritebackDirty         46344                       # Transaction distribution (Count)
system.membus.transDist::CleanEvict               827                       # Transaction distribution (Count)
system.membus.transDist::ReadExReq               1509                       # Transaction distribution (Count)
system.membus.transDist::ReadExResp              1509                       # Transaction distribution (Count)
system.membus.transDist::ReadSharedReq          35174                       # Transaction distribution (Count)
system.membus.transDist::InvalidateReq          49099                       # Transaction distribution (Count)
system.membus.pktCount_system.l3cache.mem_side_port::system.mem_ctrl.port       169636                       # Packet count per connected requestor and responder (Count)
system.membus.pktCount::total                  169636                       # Packet count per connected requestor and responder (Count)
system.membus.pktSize_system.l3cache.mem_side_port::system.mem_ctrl.port      5313728                       # Cumulative packet size per connected requestor and responder (Byte)
system.membus.pktSize::total                  5313728                       # Cumulative packet size per connected requestor and responder (Byte)
system.membus.snoops                                0                       # Total snoops (Count)
system.membus.snoopTraffic                          0                       # Total snoop traffic (Byte)
system.membus.snoopFanout::samples              85782                       # Request fanout histogram (Count)
system.membus.snoopFanout::mean                     0                       # Request fanout histogram (Count)
system.membus.snoopFanout::stdev                    0                       # Request fanout histogram (Count)
system.membus.snoopFanout::underflows               0      0.00%      0.00% # Request fanout histogram (Count)
system.membus.snoopFanout::0                    85782    100.00%    100.00% # Request fanout histogram (Count)
system.membus.snoopFanout::1                        0      0.00%    100.00% # Request fanout histogram (Count)
system.membus.snoopFanout::overflows                0      0.00%    100.00% # Request fanout histogram (Count)
system.membus.snoopFanout::min_value                0                       # Request fanout histogram (Count)
system.membus.snoopFanout::max_value                0                       # Request fanout histogram (Count)
system.membus.snoopFanout::total                85782                       # Request fanout histogram (Count)
system.membus.power_state.pwrStateResidencyTicks::UNDEFINED 110870366488                       # Cumulative time (in ticks) in various power states (Tick)
system.membus.reqLayer0.occupancy           151948168                       # Layer occupancy (ticks) (Tick)
system.membus.reqLayer0.utilization               0.0                       # Layer utilization (Ratio)
system.membus.respLayer0.occupancy           95410560                       # Layer occupancy (ticks) (Tick)
system.membus.respLayer0.utilization              0.0                       # Layer utilization (Ratio)
system.membus.snoop_filter.totRequests         133543                       # Total number of requests made to the snoop filter. (Count)
system.membus.snoop_filter.hitSingleRequests        47761                       # Number of requests hitting in the snoop filter with a single holder of the requested data. (Count)
system.membus.snoop_filter.hitMultiRequests            0                       # Number of requests hitting in the snoop filter with multiple (>1) holders of the requested data. (Count)
system.membus.snoop_filter.totSnoops                0                       # Total number of snoops made to the snoop filter. (Count)
system.membus.snoop_filter.hitSingleSnoops            0                       # Number of snoops hitting in the snoop filter with a single holder of the requested data. (Count)
system.membus.snoop_filter.hitMultiSnoops            0                       # Number of snoops hitting in the snoop filter with multiple (>1) holders of the requested data. (Count)
system.workload.inst.arm                            0                       # number of arm instructions executed (Count)
system.workload.inst.quiesce                        0                       # number of quiesce instructions executed (Count)

---------- End Simulation Statistics   ----------
