
---------- Begin Simulation Statistics ----------
simSeconds                                   0.153647                       # Number of seconds simulated (Second)
simTicks                                 153647150356                       # Number of ticks simulated (Tick)
finalTick                                153647150356                       # Number of ticks from beginning of simulation (restored from checkpoints and never reset) (Tick)
simFreq                                  1000000000000                       # The number of ticks per simulated second ((Tick/Second))
hostSeconds                                   1677.80                       # Real time elapsed on the host (Second)
hostTickRate                                 91576323                       # The number of ticks simulated per host second (ticks/s) ((Tick/Second))
hostMemory                                    8554624                       # Number of bytes of host memory used (Byte)
simInsts                                    314287647                       # Number of instructions simulated (Count)
simOps                                      402599279                       # Number of ops (including micro ops) simulated (Count)
hostInstRate                                   187321                       # Simulator instruction rate (inst/s) ((Count/Second))
hostOpRate                                     239956                       # Simulator op (including micro ops) rate (op/s) ((Count/Second))
system.clk_domain.clock                           476                       # Clock period in ticks (Tick)
system.clk_domain.voltage_domain.voltage            1                       # Voltage in Volts (Volt)
system.cpu.numCycles                        322788132                       # Number of cpu cycles simulated (Cycle)
system.cpu.cpi                               1.026574                       # CPI: cycles per instruction (core level) ((Cycle/Count))
system.cpu.ipc                               0.974114                       # IPC: instructions per cycle (core level) ((Count/Cycle))
system.cpu.numWorkItemsStarted                      0                       # Number of work items this cpu started (Count)
system.cpu.numWorkItemsCompleted                    0                       # Number of work items this cpu completed (Count)
system.cpu.instsAdded                       427599942                       # Number of instructions added to the IQ (excludes non-spec) (Count)
system.cpu.nonSpecInstsAdded                    10279                       # Number of non-speculative instructions added to the IQ (Count)
system.cpu.instsIssued                      423242522                       # Number of instructions issued (Count)
system.cpu.squashedInstsIssued                  90925                       # Number of squashed instructions issued (Count)
system.cpu.squashedInstsExamined             25010941                       # Number of squashed instructions iterated over during squash; mainly for profiling (Count)
system.cpu.squashedOperandsExamined          16999755                       # Number of squashed operands that are examined and possibly removed from graph (Count)
system.cpu.squashedNonSpecRemoved                2684                       # Number of squashed non-spec instructions that were removed (Count)
system.cpu.numIssuedDist::samples           315216656                       # Number of insts issued each cycle (Count)
system.cpu.numIssuedDist::mean               1.342704                       # Number of insts issued each cycle (Count)
system.cpu.numIssuedDist::stdev              1.293840                       # Number of insts issued each cycle (Count)
system.cpu.numIssuedDist::underflows                0      0.00%      0.00% # Number of insts issued each cycle (Count)
system.cpu.numIssuedDist::0                 107821247     34.21%     34.21% # Number of insts issued each cycle (Count)
system.cpu.numIssuedDist::1                  78358473     24.86%     59.06% # Number of insts issued each cycle (Count)
system.cpu.numIssuedDist::2                  68522011     21.74%     80.80% # Number of insts issued each cycle (Count)
system.cpu.numIssuedDist::3                  40630636     12.89%     93.69% # Number of insts issued each cycle (Count)
system.cpu.numIssuedDist::4                  14367859      4.56%     98.25% # Number of insts issued each cycle (Count)
system.cpu.numIssuedDist::5                   4720327      1.50%     99.75% # Number of insts issued each cycle (Count)
system.cpu.numIssuedDist::6                    704194      0.22%     99.97% # Number of insts issued each cycle (Count)
system.cpu.numIssuedDist::7                     85388      0.03%    100.00% # Number of insts issued each cycle (Count)
system.cpu.numIssuedDist::8                      6521      0.00%    100.00% # Number of insts issued each cycle (Count)
system.cpu.numIssuedDist::overflows                 0      0.00%    100.00% # Number of insts issued each cycle (Count)
system.cpu.numIssuedDist::min_value                 0                       # Number of insts issued each cycle (Count)
system.cpu.numIssuedDist::max_value                 8                       # Number of insts issued each cycle (Count)
system.cpu.numIssuedDist::total             315216656                       # Number of insts issued each cycle (Count)
system.cpu.statFuBusy::No_OpClass                   0      0.00%      0.00% # attempts to use FU when none available (Count)
system.cpu.statFuBusy::IntAlu                       0      0.00%      0.00% # attempts to use FU when none available (Count)
system.cpu.statFuBusy::IntMult                  33277      0.12%      0.12% # attempts to use FU when none available (Count)
system.cpu.statFuBusy::IntDiv                     147      0.00%      0.13% # attempts to use FU when none available (Count)
system.cpu.statFuBusy::FloatAdd                     0      0.00%      0.13% # attempts to use FU when none available (Count)
system.cpu.statFuBusy::FloatCmp                     6      0.00%      0.13% # attempts to use FU when none available (Count)
system.cpu.statFuBusy::FloatCvt                   248      0.00%      0.13% # attempts to use FU when none available (Count)
system.cpu.statFuBusy::FloatMult                    0      0.00%      0.13% # attempts to use FU when none available (Count)
system.cpu.statFuBusy::FloatMultAcc                 0      0.00%      0.13% # attempts to use FU when none available (Count)
system.cpu.statFuBusy::FloatDiv                     0      0.00%      0.13% # attempts to use FU when none available (Count)
system.cpu.statFuBusy::FloatMisc                  277      0.00%      0.13% # attempts to use FU when none available (Count)
system.cpu.statFuBusy::FloatSqrt                    0      0.00%      0.13% # attempts to use FU when none available (Count)
system.cpu.statFuBusy::SimdAdd                2890176     10.82%     10.95% # attempts to use FU when none available (Count)
system.cpu.statFuBusy::SimdAddAcc              944389      3.54%     14.49% # attempts to use FU when none available (Count)
system.cpu.statFuBusy::SimdAlu                6133065     22.96%     37.45% # attempts to use FU when none available (Count)
system.cpu.statFuBusy::SimdCmp                 251053      0.94%     38.39% # attempts to use FU when none available (Count)
system.cpu.statFuBusy::SimdCvt                      0      0.00%     38.39% # attempts to use FU when none available (Count)
system.cpu.statFuBusy::SimdMisc                760981      2.85%     41.24% # attempts to use FU when none available (Count)
system.cpu.statFuBusy::SimdMult                 59344      0.22%     41.46% # attempts to use FU when none available (Count)
system.cpu.statFuBusy::SimdMultAcc              90395      0.34%     41.80% # attempts to use FU when none available (Count)
system.cpu.statFuBusy::SimdMatMultAcc               0      0.00%     41.80% # attempts to use FU when none available (Count)
system.cpu.statFuBusy::SimdShift               908085      3.40%     45.20% # attempts to use FU when none available (Count)
system.cpu.statFuBusy::SimdShiftAcc                 0      0.00%     45.20% # attempts to use FU when none available (Count)
system.cpu.statFuBusy::SimdDiv                      0      0.00%     45.20% # attempts to use FU when none available (Count)
system.cpu.statFuBusy::SimdSqrt                     0      0.00%     45.20% # attempts to use FU when none available (Count)
system.cpu.statFuBusy::SimdFloatAdd                 0      0.00%     45.20% # attempts to use FU when none available (Count)
system.cpu.statFuBusy::SimdFloatAlu                 0      0.00%     45.20% # attempts to use FU when none available (Count)
system.cpu.statFuBusy::SimdFloatCmp                 0      0.00%     45.20% # attempts to use FU when none available (Count)
system.cpu.statFuBusy::SimdFloatCvt                 0      0.00%     45.20% # attempts to use FU when none available (Count)
system.cpu.statFuBusy::SimdFloatDiv                 0      0.00%     45.20% # attempts to use FU when none available (Count)
system.cpu.statFuBusy::SimdFloatMisc                0      0.00%     45.20% # attempts to use FU when none available (Count)
system.cpu.statFuBusy::SimdFloatMult                0      0.00%     45.20% # attempts to use FU when none available (Count)
system.cpu.statFuBusy::SimdFloatMultAcc             0      0.00%     45.20% # attempts to use FU when none available (Count)
system.cpu.statFuBusy::SimdFloatMatMultAcc            0      0.00%     45.20% # attempts to use FU when none available (Count)
system.cpu.statFuBusy::SimdFloatSqrt                0      0.00%     45.20% # attempts to use FU when none available (Count)
system.cpu.statFuBusy::SimdReduceAdd                0      0.00%     45.20% # attempts to use FU when none available (Count)
system.cpu.statFuBusy::SimdReduceAlu                0      0.00%     45.20% # attempts to use FU when none available (Count)
system.cpu.statFuBusy::SimdReduceCmp                0      0.00%     45.20% # attempts to use FU when none available (Count)
system.cpu.statFuBusy::SimdFloatReduceAdd            0      0.00%     45.20% # attempts to use FU when none available (Count)
system.cpu.statFuBusy::SimdFloatReduceCmp            0      0.00%     45.20% # attempts to use FU when none available (Count)
system.cpu.statFuBusy::SimdAes                      0      0.00%     45.20% # attempts to use FU when none available (Count)
system.cpu.statFuBusy::SimdAesMix                   0      0.00%     45.20% # attempts to use FU when none available (Count)
system.cpu.statFuBusy::SimdSha1Hash                 0      0.00%     45.20% # attempts to use FU when none available (Count)
system.cpu.statFuBusy::SimdSha1Hash2                0      0.00%     45.20% # attempts to use FU when none available (Count)
system.cpu.statFuBusy::SimdSha256Hash               0      0.00%     45.20% # attempts to use FU when none available (Count)
system.cpu.statFuBusy::SimdSha256Hash2              0      0.00%     45.20% # attempts to use FU when none available (Count)
system.cpu.statFuBusy::SimdShaSigma2                0      0.00%     45.20% # attempts to use FU when none available (Count)
system.cpu.statFuBusy::SimdShaSigma3                0      0.00%     45.20% # attempts to use FU when none available (Count)
system.cpu.statFuBusy::SimdPredAlu                  0      0.00%     45.20% # attempts to use FU when none available (Count)
system.cpu.statFuBusy::Matrix                       0      0.00%     45.20% # attempts to use FU when none available (Count)
system.cpu.statFuBusy::MatrixMov                    0      0.00%     45.20% # attempts to use FU when none available (Count)
system.cpu.statFuBusy::MatrixOP                     0      0.00%     45.20% # attempts to use FU when none available (Count)
system.cpu.statFuBusy::MemRead                 524416      1.96%     47.16% # attempts to use FU when none available (Count)
system.cpu.statFuBusy::MemWrite              14110881     52.84%    100.00% # attempts to use FU when none available (Count)
system.cpu.statFuBusy::FloatMemRead                 0      0.00%    100.00% # attempts to use FU when none available (Count)
system.cpu.statFuBusy::FloatMemWrite                0      0.00%    100.00% # attempts to use FU when none available (Count)
system.cpu.statFuBusy::IprAccess                    0      0.00%    100.00% # attempts to use FU when none available (Count)
system.cpu.statFuBusy::InstPrefetch                 0      0.00%    100.00% # attempts to use FU when none available (Count)
system.cpu.statFuBusy::VectorUnitStrideLoad            0      0.00%    100.00% # attempts to use FU when none available (Count)
system.cpu.statFuBusy::VectorUnitStrideStore            0      0.00%    100.00% # attempts to use FU when none available (Count)
system.cpu.statFuBusy::VectorUnitStrideMaskLoad            0      0.00%    100.00% # attempts to use FU when none available (Count)
system.cpu.statFuBusy::VectorUnitStrideMaskStore            0      0.00%    100.00% # attempts to use FU when none available (Count)
system.cpu.statFuBusy::VectorStridedLoad            0      0.00%    100.00% # attempts to use FU when none available (Count)
system.cpu.statFuBusy::VectorStridedStore            0      0.00%    100.00% # attempts to use FU when none available (Count)
system.cpu.statFuBusy::VectorIndexedLoad            0      0.00%    100.00% # attempts to use FU when none available (Count)
system.cpu.statFuBusy::VectorIndexedStore            0      0.00%    100.00% # attempts to use FU when none available (Count)
system.cpu.statFuBusy::VectorUnitStrideFaultOnlyFirstLoad            0      0.00%    100.00% # attempts to use FU when none available (Count)
system.cpu.statFuBusy::VectorWholeRegisterLoad            0      0.00%    100.00% # attempts to use FU when none available (Count)
system.cpu.statFuBusy::VectorWholeRegisterStore            0      0.00%    100.00% # attempts to use FU when none available (Count)
system.cpu.statFuBusy::VectorIntegerArith            0      0.00%    100.00% # attempts to use FU when none available (Count)
system.cpu.statFuBusy::VectorFloatArith             0      0.00%    100.00% # attempts to use FU when none available (Count)
system.cpu.statFuBusy::VectorFloatConvert            0      0.00%    100.00% # attempts to use FU when none available (Count)
system.cpu.statFuBusy::VectorIntegerReduce            0      0.00%    100.00% # attempts to use FU when none available (Count)
system.cpu.statFuBusy::VectorFloatReduce            0      0.00%    100.00% # attempts to use FU when none available (Count)
system.cpu.statFuBusy::VectorMisc                   0      0.00%    100.00% # attempts to use FU when none available (Count)
system.cpu.statFuBusy::VectorIntegerExtension            0      0.00%    100.00% # attempts to use FU when none available (Count)
system.cpu.statFuBusy::VectorConfig                 0      0.00%    100.00% # attempts to use FU when none available (Count)
system.cpu.statIssuedInstType_0::No_OpClass     17588670      4.16%      4.16% # Number of instructions issued per FU type, per thread (Count)
system.cpu.statIssuedInstType_0::IntAlu     172230033     40.69%     44.85% # Number of instructions issued per FU type, per thread (Count)
system.cpu.statIssuedInstType_0::IntMult       490449      0.12%     44.96% # Number of instructions issued per FU type, per thread (Count)
system.cpu.statIssuedInstType_0::IntDiv         22969      0.01%     44.97% # Number of instructions issued per FU type, per thread (Count)
system.cpu.statIssuedInstType_0::FloatAdd         4173      0.00%     44.97% # Number of instructions issued per FU type, per thread (Count)
system.cpu.statIssuedInstType_0::FloatCmp         1096      0.00%     44.97% # Number of instructions issued per FU type, per thread (Count)
system.cpu.statIssuedInstType_0::FloatCvt         9027      0.00%     44.97% # Number of instructions issued per FU type, per thread (Count)
system.cpu.statIssuedInstType_0::FloatMult         3135      0.00%     44.97% # Number of instructions issued per FU type, per thread (Count)
system.cpu.statIssuedInstType_0::FloatMultAcc         1814      0.00%     44.97% # Number of instructions issued per FU type, per thread (Count)
system.cpu.statIssuedInstType_0::FloatDiv         3151      0.00%     44.98% # Number of instructions issued per FU type, per thread (Count)
system.cpu.statIssuedInstType_0::FloatMisc       260888      0.06%     45.04% # Number of instructions issued per FU type, per thread (Count)
system.cpu.statIssuedInstType_0::FloatSqrt            0      0.00%     45.04% # Number of instructions issued per FU type, per thread (Count)
system.cpu.statIssuedInstType_0::SimdAdd     48895401     11.55%     56.59% # Number of instructions issued per FU type, per thread (Count)
system.cpu.statIssuedInstType_0::SimdAddAcc      8771132      2.07%     58.66% # Number of instructions issued per FU type, per thread (Count)
system.cpu.statIssuedInstType_0::SimdAlu     24691884      5.83%     64.50% # Number of instructions issued per FU type, per thread (Count)
system.cpu.statIssuedInstType_0::SimdCmp      3622556      0.86%     65.35% # Number of instructions issued per FU type, per thread (Count)
system.cpu.statIssuedInstType_0::SimdCvt         3434      0.00%     65.35% # Number of instructions issued per FU type, per thread (Count)
system.cpu.statIssuedInstType_0::SimdMisc      7082811      1.67%     67.03% # Number of instructions issued per FU type, per thread (Count)
system.cpu.statIssuedInstType_0::SimdMult      9139313      2.16%     69.19% # Number of instructions issued per FU type, per thread (Count)
system.cpu.statIssuedInstType_0::SimdMultAcc      5759672      1.36%     70.55% # Number of instructions issued per FU type, per thread (Count)
system.cpu.statIssuedInstType_0::SimdMatMultAcc            0      0.00%     70.55% # Number of instructions issued per FU type, per thread (Count)
system.cpu.statIssuedInstType_0::SimdShift     18075367      4.27%     74.82% # Number of instructions issued per FU type, per thread (Count)
system.cpu.statIssuedInstType_0::SimdShiftAcc            0      0.00%     74.82% # Number of instructions issued per FU type, per thread (Count)
system.cpu.statIssuedInstType_0::SimdDiv            0      0.00%     74.82% # Number of instructions issued per FU type, per thread (Count)
system.cpu.statIssuedInstType_0::SimdSqrt            0      0.00%     74.82% # Number of instructions issued per FU type, per thread (Count)
system.cpu.statIssuedInstType_0::SimdFloatAdd            0      0.00%     74.82% # Number of instructions issued per FU type, per thread (Count)
system.cpu.statIssuedInstType_0::SimdFloatAlu            0      0.00%     74.82% # Number of instructions issued per FU type, per thread (Count)
system.cpu.statIssuedInstType_0::SimdFloatCmp            0      0.00%     74.82% # Number of instructions issued per FU type, per thread (Count)
system.cpu.statIssuedInstType_0::SimdFloatCvt            0      0.00%     74.82% # Number of instructions issued per FU type, per thread (Count)
system.cpu.statIssuedInstType_0::SimdFloatDiv            0      0.00%     74.82% # Number of instructions issued per FU type, per thread (Count)
system.cpu.statIssuedInstType_0::SimdFloatMisc            0      0.00%     74.82% # Number of instructions issued per FU type, per thread (Count)
system.cpu.statIssuedInstType_0::SimdFloatMult            0      0.00%     74.82% # Number of instructions issued per FU type, per thread (Count)
system.cpu.statIssuedInstType_0::SimdFloatMultAcc            0      0.00%     74.82% # Number of instructions issued per FU type, per thread (Count)
system.cpu.statIssuedInstType_0::SimdFloatMatMultAcc            0      0.00%     74.82% # Number of instructions issued per FU type, per thread (Count)
system.cpu.statIssuedInstType_0::SimdFloatSqrt            0      0.00%     74.82% # Number of instructions issued per FU type, per thread (Count)
system.cpu.statIssuedInstType_0::SimdReduceAdd            0      0.00%     74.82% # Number of instructions issued per FU type, per thread (Count)
system.cpu.statIssuedInstType_0::SimdReduceAlu            0      0.00%     74.82% # Number of instructions issued per FU type, per thread (Count)
system.cpu.statIssuedInstType_0::SimdReduceCmp            0      0.00%     74.82% # Number of instructions issued per FU type, per thread (Count)
system.cpu.statIssuedInstType_0::SimdFloatReduceAdd            0      0.00%     74.82% # Number of instructions issued per FU type, per thread (Count)
system.cpu.statIssuedInstType_0::SimdFloatReduceCmp            0      0.00%     74.82% # Number of instructions issued per FU type, per thread (Count)
system.cpu.statIssuedInstType_0::SimdAes            0      0.00%     74.82% # Number of instructions issued per FU type, per thread (Count)
system.cpu.statIssuedInstType_0::SimdAesMix            0      0.00%     74.82% # Number of instructions issued per FU type, per thread (Count)
system.cpu.statIssuedInstType_0::SimdSha1Hash            0      0.00%     74.82% # Number of instructions issued per FU type, per thread (Count)
system.cpu.statIssuedInstType_0::SimdSha1Hash2            0      0.00%     74.82% # Number of instructions issued per FU type, per thread (Count)
system.cpu.statIssuedInstType_0::SimdSha256Hash            0      0.00%     74.82% # Number of instructions issued per FU type, per thread (Count)
system.cpu.statIssuedInstType_0::SimdSha256Hash2            0      0.00%     74.82% # Number of instructions issued per FU type, per thread (Count)
system.cpu.statIssuedInstType_0::SimdShaSigma2            0      0.00%     74.82% # Number of instructions issued per FU type, per thread (Count)
system.cpu.statIssuedInstType_0::SimdShaSigma3            0      0.00%     74.82% # Number of instructions issued per FU type, per thread (Count)
system.cpu.statIssuedInstType_0::SimdPredAlu            0      0.00%     74.82% # Number of instructions issued per FU type, per thread (Count)
system.cpu.statIssuedInstType_0::Matrix             0      0.00%     74.82% # Number of instructions issued per FU type, per thread (Count)
system.cpu.statIssuedInstType_0::MatrixMov            0      0.00%     74.82% # Number of instructions issued per FU type, per thread (Count)
system.cpu.statIssuedInstType_0::MatrixOP            0      0.00%     74.82% # Number of instructions issued per FU type, per thread (Count)
system.cpu.statIssuedInstType_0::MemRead     68977644     16.30%     91.11% # Number of instructions issued per FU type, per thread (Count)
system.cpu.statIssuedInstType_0::MemWrite     37607903      8.89%    100.00% # Number of instructions issued per FU type, per thread (Count)
system.cpu.statIssuedInstType_0::FloatMemRead            0      0.00%    100.00% # Number of instructions issued per FU type, per thread (Count)
system.cpu.statIssuedInstType_0::FloatMemWrite            0      0.00%    100.00% # Number of instructions issued per FU type, per thread (Count)
system.cpu.statIssuedInstType_0::IprAccess            0      0.00%    100.00% # Number of instructions issued per FU type, per thread (Count)
system.cpu.statIssuedInstType_0::InstPrefetch            0      0.00%    100.00% # Number of instructions issued per FU type, per thread (Count)
system.cpu.statIssuedInstType_0::VectorUnitStrideLoad            0      0.00%    100.00% # Number of instructions issued per FU type, per thread (Count)
system.cpu.statIssuedInstType_0::VectorUnitStrideStore            0      0.00%    100.00% # Number of instructions issued per FU type, per thread (Count)
system.cpu.statIssuedInstType_0::VectorUnitStrideMaskLoad            0      0.00%    100.00% # Number of instructions issued per FU type, per thread (Count)
system.cpu.statIssuedInstType_0::VectorUnitStrideMaskStore            0      0.00%    100.00% # Number of instructions issued per FU type, per thread (Count)
system.cpu.statIssuedInstType_0::VectorStridedLoad            0      0.00%    100.00% # Number of instructions issued per FU type, per thread (Count)
system.cpu.statIssuedInstType_0::VectorStridedStore            0      0.00%    100.00% # Number of instructions issued per FU type, per thread (Count)
system.cpu.statIssuedInstType_0::VectorIndexedLoad            0      0.00%    100.00% # Number of instructions issued per FU type, per thread (Count)
system.cpu.statIssuedInstType_0::VectorIndexedStore            0      0.00%    100.00% # Number of instructions issued per FU type, per thread (Count)
system.cpu.statIssuedInstType_0::VectorUnitStrideFaultOnlyFirstLoad            0      0.00%    100.00% # Number of instructions issued per FU type, per thread (Count)
system.cpu.statIssuedInstType_0::VectorWholeRegisterLoad            0      0.00%    100.00% # Number of instructions issued per FU type, per thread (Count)
system.cpu.statIssuedInstType_0::VectorWholeRegisterStore            0      0.00%    100.00% # Number of instructions issued per FU type, per thread (Count)
system.cpu.statIssuedInstType_0::VectorIntegerArith            0      0.00%    100.00% # Number of instructions issued per FU type, per thread (Count)
system.cpu.statIssuedInstType_0::VectorFloatArith            0      0.00%    100.00% # Number of instructions issued per FU type, per thread (Count)
system.cpu.statIssuedInstType_0::VectorFloatConvert            0      0.00%    100.00% # Number of instructions issued per FU type, per thread (Count)
system.cpu.statIssuedInstType_0::VectorIntegerReduce            0      0.00%    100.00% # Number of instructions issued per FU type, per thread (Count)
system.cpu.statIssuedInstType_0::VectorFloatReduce            0      0.00%    100.00% # Number of instructions issued per FU type, per thread (Count)
system.cpu.statIssuedInstType_0::VectorMisc            0      0.00%    100.00% # Number of instructions issued per FU type, per thread (Count)
system.cpu.statIssuedInstType_0::VectorIntegerExtension            0      0.00%    100.00% # Number of instructions issued per FU type, per thread (Count)
system.cpu.statIssuedInstType_0::VectorConfig            0      0.00%    100.00% # Number of instructions issued per FU type, per thread (Count)
system.cpu.statIssuedInstType_0::total      423242522                       # Number of instructions issued per FU type, per thread (Count)
system.cpu.issueRate                         1.311208                       # Inst issue rate ((Count/Cycle))
system.cpu.fuBusy                            26706740                       # FU busy when requested (Count)
system.cpu.fuBusyRate                        0.063100                       # FU busy rate (busy events/executed inst) ((Count/Count))
system.cpu.intInstQueueReads                810503286                       # Number of integer instruction queue reads (Count)
system.cpu.intInstQueueWrites               268863405                       # Number of integer instruction queue writes (Count)
system.cpu.intInstQueueWakeupAccesses       233380386                       # Number of integer instruction queue wakeup accesses (Count)
system.cpu.fpInstQueueReads                         0                       # Number of floating instruction queue reads (Count)
system.cpu.fpInstQueueWrites                        0                       # Number of floating instruction queue writes (Count)
system.cpu.fpInstQueueWakeupAccesses                0                       # Number of floating instruction queue wakeup accesses (Count)
system.cpu.vecInstQueueReads                377996079                       # Number of vector instruction queue reads (Count)
system.cpu.vecInstQueueWrites               183794778                       # Number of vector instruction queue writes (Count)
system.cpu.vecInstQueueWakeupAccesses       181341472                       # Number of vector instruction queue wakeup accesses (Count)
system.cpu.intAluAccesses                   253863658                       # Number of integer alu accesses (Count)
system.cpu.fpAluAccesses                            0                       # Number of floating point alu accesses (Count)
system.cpu.vecAluAccesses                   178496934                       # Number of vector alu accesses (Count)
system.cpu.numSquashedInsts                   4788089                       # Number of squashed instructions skipped in execute (Count)
system.cpu.numSwp                                   0                       # Number of swp insts executed (Count)
system.cpu.timesIdled                          337706                       # Number of times that the entire CPU went into an idle state and unscheduled itself (Count)
system.cpu.idleCycles                         7571476                       # Total number of cycles that the CPU has spent unscheduled due to idling (Cycle)
system.cpu.MemDepUnit__0.insertedLoads       68086552                       # Number of loads inserted to the mem dependence unit. (Count)
system.cpu.MemDepUnit__0.insertedStores      38318224                       # Number of stores inserted to the mem dependence unit. (Count)
system.cpu.MemDepUnit__0.conflictingLoads      1598743                       # Number of conflicting loads. (Count)
system.cpu.MemDepUnit__0.conflictingStores      3738298                       # Number of conflicting stores. (Count)
system.cpu.MemDepUnit__1.insertedLoads              0                       # Number of loads inserted to the mem dependence unit. (Count)
system.cpu.MemDepUnit__1.insertedStores             0                       # Number of stores inserted to the mem dependence unit. (Count)
system.cpu.MemDepUnit__1.conflictingLoads            0                       # Number of conflicting loads. (Count)
system.cpu.MemDepUnit__1.conflictingStores            0                       # Number of conflicting stores. (Count)
system.cpu.MemDepUnit__2.insertedLoads              0                       # Number of loads inserted to the mem dependence unit. (Count)
system.cpu.MemDepUnit__2.insertedStores             0                       # Number of stores inserted to the mem dependence unit. (Count)
system.cpu.MemDepUnit__2.conflictingLoads            0                       # Number of conflicting loads. (Count)
system.cpu.MemDepUnit__2.conflictingStores            0                       # Number of conflicting stores. (Count)
system.cpu.MemDepUnit__3.insertedLoads              0                       # Number of loads inserted to the mem dependence unit. (Count)
system.cpu.MemDepUnit__3.insertedStores             0                       # Number of stores inserted to the mem dependence unit. (Count)
system.cpu.MemDepUnit__3.conflictingLoads            0                       # Number of conflicting loads. (Count)
system.cpu.MemDepUnit__3.conflictingStores            0                       # Number of conflicting stores. (Count)
system.cpu.branchPred.lookups                35350385                       # Number of BP lookups (Count)
system.cpu.branchPred.condPredicted          26192183                       # Number of conditional branches predicted (Count)
system.cpu.branchPred.condIncorrect           2192417                       # Number of conditional branches incorrect (Count)
system.cpu.branchPred.BTBLookups             16892561                       # Number of BTB lookups (Count)
system.cpu.branchPred.BTBUpdates               929127                       # Number of BTB updates (Count)
system.cpu.branchPred.BTBHits                16563742                       # Number of BTB hits (Count)
system.cpu.branchPred.BTBHitRatio            0.980535                       # BTB Hit Ratio (Ratio)
system.cpu.branchPred.RASUsed                 2825800                       # Number of times the RAS was used to get a target. (Count)
system.cpu.branchPred.RASIncorrect               1184                       # Number of incorrect RAS predictions. (Count)
system.cpu.branchPred.indirectLookups         2575381                       # Number of indirect predictor lookups. (Count)
system.cpu.branchPred.indirectHits            1717692                       # Number of indirect target hits. (Count)
system.cpu.branchPred.indirectMisses           857689                       # Number of indirect misses. (Count)
system.cpu.branchPred.indirectMispredicted       406980                       # Number of mispredicted indirect branches. (Count)
system.cpu.commit.commitSquashedInsts        22871665                       # The number of squashed insts skipped by commit (Count)
system.cpu.commit.commitNonSpecStalls            7595                       # The number of times commit has been forced to stall to communicate backwards (Count)
system.cpu.commit.branchMispredicts           2090489                       # The number of times a branch was mispredicted (Count)
system.cpu.commit.numCommittedDist::samples    311396009                       # Number of insts commited each cycle (Count)
system.cpu.commit.numCommittedDist::mean     1.293350                       # Number of insts commited each cycle (Count)
system.cpu.commit.numCommittedDist::stdev     1.547745                       # Number of insts commited each cycle (Count)
system.cpu.commit.numCommittedDist::underflows            0      0.00%      0.00% # Number of insts commited each cycle (Count)
system.cpu.commit.numCommittedDist::0       151076677     48.52%     48.52% # Number of insts commited each cycle (Count)
system.cpu.commit.numCommittedDist::1        51359522     16.49%     65.01% # Number of insts commited each cycle (Count)
system.cpu.commit.numCommittedDist::2        31654789     10.17%     75.17% # Number of insts commited each cycle (Count)
system.cpu.commit.numCommittedDist::3        21145188      6.79%     81.97% # Number of insts commited each cycle (Count)
system.cpu.commit.numCommittedDist::4        56159833     18.03%    100.00% # Number of insts commited each cycle (Count)
system.cpu.commit.numCommittedDist::overflows            0      0.00%    100.00% # Number of insts commited each cycle (Count)
system.cpu.commit.numCommittedDist::min_value            0                       # Number of insts commited each cycle (Count)
system.cpu.commit.numCommittedDist::max_value            4                       # Number of insts commited each cycle (Count)
system.cpu.commit.numCommittedDist::total    311396009                       # Number of insts commited each cycle (Count)
system.cpu.commit.amos                              0                       # Number of atomic instructions committed (Count)
system.cpu.commit.membars                        6105                       # Number of memory barriers committed (Count)
system.cpu.commit.functionCalls               2457854                       # Number of function calls committed. (Count)
system.cpu.commit.committedInstType_0::No_OpClass     17413051      4.32%      4.32% # Class of committed instruction (Count)
system.cpu.commit.committedInstType_0::IntAlu    159698124     39.65%     43.98% # Class of committed instruction (Count)
system.cpu.commit.committedInstType_0::IntMult       475656      0.12%     44.09% # Class of committed instruction (Count)
system.cpu.commit.committedInstType_0::IntDiv        22210      0.01%     44.10% # Class of committed instruction (Count)
system.cpu.commit.committedInstType_0::FloatAdd         4167      0.00%     44.10% # Class of committed instruction (Count)
system.cpu.commit.committedInstType_0::FloatCmp         1090      0.00%     44.10% # Class of committed instruction (Count)
system.cpu.commit.committedInstType_0::FloatCvt         8998      0.00%     44.10% # Class of committed instruction (Count)
system.cpu.commit.committedInstType_0::FloatMult         3107      0.00%     44.10% # Class of committed instruction (Count)
system.cpu.commit.committedInstType_0::FloatMultAcc         1814      0.00%     44.10% # Class of committed instruction (Count)
system.cpu.commit.committedInstType_0::FloatDiv         3126      0.00%     44.11% # Class of committed instruction (Count)
system.cpu.commit.committedInstType_0::FloatMisc       260648      0.06%     44.17% # Class of committed instruction (Count)
system.cpu.commit.committedInstType_0::FloatSqrt            0      0.00%     44.17% # Class of committed instruction (Count)
system.cpu.commit.committedInstType_0::SimdAdd     48807529     12.12%     56.29% # Class of committed instruction (Count)
system.cpu.commit.committedInstType_0::SimdAddAcc      8761360      2.18%     58.46% # Class of committed instruction (Count)
system.cpu.commit.committedInstType_0::SimdAlu     24630307      6.12%     64.58% # Class of committed instruction (Count)
system.cpu.commit.committedInstType_0::SimdCmp      3594502      0.89%     65.47% # Class of committed instruction (Count)
system.cpu.commit.committedInstType_0::SimdCvt         3379      0.00%     65.47% # Class of committed instruction (Count)
system.cpu.commit.committedInstType_0::SimdMisc      7058345      1.75%     67.23% # Class of committed instruction (Count)
system.cpu.commit.committedInstType_0::SimdMult      9139113      2.27%     69.49% # Class of committed instruction (Count)
system.cpu.commit.committedInstType_0::SimdMultAcc      5759629      1.43%     70.92% # Class of committed instruction (Count)
system.cpu.commit.committedInstType_0::SimdMatMultAcc            0      0.00%     70.92% # Class of committed instruction (Count)
system.cpu.commit.committedInstType_0::SimdShift     18071790      4.49%     75.41% # Class of committed instruction (Count)
system.cpu.commit.committedInstType_0::SimdShiftAcc            0      0.00%     75.41% # Class of committed instruction (Count)
system.cpu.commit.committedInstType_0::SimdDiv            0      0.00%     75.41% # Class of committed instruction (Count)
system.cpu.commit.committedInstType_0::SimdSqrt            0      0.00%     75.41% # Class of committed instruction (Count)
system.cpu.commit.committedInstType_0::SimdFloatAdd            0      0.00%     75.41% # Class of committed instruction (Count)
system.cpu.commit.committedInstType_0::SimdFloatAlu            0      0.00%     75.41% # Class of committed instruction (Count)
system.cpu.commit.committedInstType_0::SimdFloatCmp            0      0.00%     75.41% # Class of committed instruction (Count)
system.cpu.commit.committedInstType_0::SimdFloatCvt            0      0.00%     75.41% # Class of committed instruction (Count)
system.cpu.commit.committedInstType_0::SimdFloatDiv            0      0.00%     75.41% # Class of committed instruction (Count)
system.cpu.commit.committedInstType_0::SimdFloatMisc            0      0.00%     75.41% # Class of committed instruction (Count)
system.cpu.commit.committedInstType_0::SimdFloatMult            0      0.00%     75.41% # Class of committed instruction (Count)
system.cpu.commit.committedInstType_0::SimdFloatMultAcc            0      0.00%     75.41% # Class of committed instruction (Count)
system.cpu.commit.committedInstType_0::SimdFloatMatMultAcc            0      0.00%     75.41% # Class of committed instruction (Count)
system.cpu.commit.committedInstType_0::SimdFloatSqrt            0      0.00%     75.41% # Class of committed instruction (Count)
system.cpu.commit.committedInstType_0::SimdReduceAdd            0      0.00%     75.41% # Class of committed instruction (Count)
system.cpu.commit.committedInstType_0::SimdReduceAlu            0      0.00%     75.41% # Class of committed instruction (Count)
system.cpu.commit.committedInstType_0::SimdReduceCmp            0      0.00%     75.41% # Class of committed instruction (Count)
system.cpu.commit.committedInstType_0::SimdFloatReduceAdd            0      0.00%     75.41% # Class of committed instruction (Count)
system.cpu.commit.committedInstType_0::SimdFloatReduceCmp            0      0.00%     75.41% # Class of committed instruction (Count)
system.cpu.commit.committedInstType_0::SimdAes            0      0.00%     75.41% # Class of committed instruction (Count)
system.cpu.commit.committedInstType_0::SimdAesMix            0      0.00%     75.41% # Class of committed instruction (Count)
system.cpu.commit.committedInstType_0::SimdSha1Hash            0      0.00%     75.41% # Class of committed instruction (Count)
system.cpu.commit.committedInstType_0::SimdSha1Hash2            0      0.00%     75.41% # Class of committed instruction (Count)
system.cpu.commit.committedInstType_0::SimdSha256Hash            0      0.00%     75.41% # Class of committed instruction (Count)
system.cpu.commit.committedInstType_0::SimdSha256Hash2            0      0.00%     75.41% # Class of committed instruction (Count)
system.cpu.commit.committedInstType_0::SimdShaSigma2            0      0.00%     75.41% # Class of committed instruction (Count)
system.cpu.commit.committedInstType_0::SimdShaSigma3            0      0.00%     75.41% # Class of committed instruction (Count)
system.cpu.commit.committedInstType_0::SimdPredAlu            0      0.00%     75.41% # Class of committed instruction (Count)
system.cpu.commit.committedInstType_0::Matrix            0      0.00%     75.41% # Class of committed instruction (Count)
system.cpu.commit.committedInstType_0::MatrixMov            0      0.00%     75.41% # Class of committed instruction (Count)
system.cpu.commit.committedInstType_0::MatrixOP            0      0.00%     75.41% # Class of committed instruction (Count)
system.cpu.commit.committedInstType_0::MemRead     62604532     15.54%     90.96% # Class of committed instruction (Count)
system.cpu.commit.committedInstType_0::MemWrite     36421519      9.04%    100.00% # Class of committed instruction (Count)
system.cpu.commit.committedInstType_0::FloatMemRead            0      0.00%    100.00% # Class of committed instruction (Count)
system.cpu.commit.committedInstType_0::FloatMemWrite            0      0.00%    100.00% # Class of committed instruction (Count)
system.cpu.commit.committedInstType_0::IprAccess            0      0.00%    100.00% # Class of committed instruction (Count)
system.cpu.commit.committedInstType_0::InstPrefetch            0      0.00%    100.00% # Class of committed instruction (Count)
system.cpu.commit.committedInstType_0::VectorUnitStrideLoad            0      0.00%    100.00% # Class of committed instruction (Count)
system.cpu.commit.committedInstType_0::VectorUnitStrideStore            0      0.00%    100.00% # Class of committed instruction (Count)
system.cpu.commit.committedInstType_0::VectorUnitStrideMaskLoad            0      0.00%    100.00% # Class of committed instruction (Count)
system.cpu.commit.committedInstType_0::VectorUnitStrideMaskStore            0      0.00%    100.00% # Class of committed instruction (Count)
system.cpu.commit.committedInstType_0::VectorStridedLoad            0      0.00%    100.00% # Class of committed instruction (Count)
system.cpu.commit.committedInstType_0::VectorStridedStore            0      0.00%    100.00% # Class of committed instruction (Count)
system.cpu.commit.committedInstType_0::VectorIndexedLoad            0      0.00%    100.00% # Class of committed instruction (Count)
system.cpu.commit.committedInstType_0::VectorIndexedStore            0      0.00%    100.00% # Class of committed instruction (Count)
system.cpu.commit.committedInstType_0::VectorUnitStrideFaultOnlyFirstLoad            0      0.00%    100.00% # Class of committed instruction (Count)
system.cpu.commit.committedInstType_0::VectorWholeRegisterLoad            0      0.00%    100.00% # Class of committed instruction (Count)
system.cpu.commit.committedInstType_0::VectorWholeRegisterStore            0      0.00%    100.00% # Class of committed instruction (Count)
system.cpu.commit.committedInstType_0::VectorIntegerArith            0      0.00%    100.00% # Class of committed instruction (Count)
system.cpu.commit.committedInstType_0::VectorFloatArith            0      0.00%    100.00% # Class of committed instruction (Count)
system.cpu.commit.committedInstType_0::VectorFloatConvert            0      0.00%    100.00% # Class of committed instruction (Count)
system.cpu.commit.committedInstType_0::VectorIntegerReduce            0      0.00%    100.00% # Class of committed instruction (Count)
system.cpu.commit.committedInstType_0::VectorFloatReduce            0      0.00%    100.00% # Class of committed instruction (Count)
system.cpu.commit.committedInstType_0::VectorMisc            0      0.00%    100.00% # Class of committed instruction (Count)
system.cpu.commit.committedInstType_0::VectorIntegerExtension            0      0.00%    100.00% # Class of committed instruction (Count)
system.cpu.commit.committedInstType_0::VectorConfig            0      0.00%    100.00% # Class of committed instruction (Count)
system.cpu.commit.committedInstType_0::total    402743996                       # Class of committed instruction (Count)
system.cpu.commit.commitEligibleSamples      56159833                       # number cycles where commit BW limit reached (Cycle)
system.cpu.commitStats0.numInsts            314432364                       # Number of instructions committed (thread level) (Count)
system.cpu.commitStats0.numOps              402743996                       # Number of ops (including micro ops) committed (thread level) (Count)
system.cpu.commitStats0.numInstsNotNOP      314287647                       # Number of instructions committed excluding NOPs or prefetches (Count)
system.cpu.commitStats0.numOpsNotNOP        402599279                       # Number of Ops (including micro ops) Simulated (Count)
system.cpu.commitStats0.cpi                  1.026574                       # CPI: cycles per instruction (thread level) ((Cycle/Count))
system.cpu.commitStats0.ipc                  0.974114                       # IPC: instructions per cycle (thread level) ((Count/Cycle))
system.cpu.commitStats0.numMemRefs           99026051                       # Number of memory references committed (Count)
system.cpu.commitStats0.numFpInsts                  0                       # Number of float instructions (Count)
system.cpu.commitStats0.numIntInsts         248566838                       # Number of integer instructions (Count)
system.cpu.commitStats0.numLoadInsts         62604532                       # Number of load instructions (Count)
system.cpu.commitStats0.numStoreInsts        36421519                       # Number of store instructions (Count)
system.cpu.commitStats0.numVecInsts         180905412                       # Number of vector instructions (Count)
system.cpu.commitStats0.committedInstType::No_OpClass     17413051      4.32%      4.32% # Class of committed instruction. (Count)
system.cpu.commitStats0.committedInstType::IntAlu    159698124     39.65%     43.98% # Class of committed instruction. (Count)
system.cpu.commitStats0.committedInstType::IntMult       475656      0.12%     44.09% # Class of committed instruction. (Count)
system.cpu.commitStats0.committedInstType::IntDiv        22210      0.01%     44.10% # Class of committed instruction. (Count)
system.cpu.commitStats0.committedInstType::FloatAdd         4167      0.00%     44.10% # Class of committed instruction. (Count)
system.cpu.commitStats0.committedInstType::FloatCmp         1090      0.00%     44.10% # Class of committed instruction. (Count)
system.cpu.commitStats0.committedInstType::FloatCvt         8998      0.00%     44.10% # Class of committed instruction. (Count)
system.cpu.commitStats0.committedInstType::FloatMult         3107      0.00%     44.10% # Class of committed instruction. (Count)
system.cpu.commitStats0.committedInstType::FloatMultAcc         1814      0.00%     44.10% # Class of committed instruction. (Count)
system.cpu.commitStats0.committedInstType::FloatDiv         3126      0.00%     44.11% # Class of committed instruction. (Count)
system.cpu.commitStats0.committedInstType::FloatMisc       260648      0.06%     44.17% # Class of committed instruction. (Count)
system.cpu.commitStats0.committedInstType::FloatSqrt            0      0.00%     44.17% # Class of committed instruction. (Count)
system.cpu.commitStats0.committedInstType::SimdAdd     48807529     12.12%     56.29% # Class of committed instruction. (Count)
system.cpu.commitStats0.committedInstType::SimdAddAcc      8761360      2.18%     58.46% # Class of committed instruction. (Count)
system.cpu.commitStats0.committedInstType::SimdAlu     24630307      6.12%     64.58% # Class of committed instruction. (Count)
system.cpu.commitStats0.committedInstType::SimdCmp      3594502      0.89%     65.47% # Class of committed instruction. (Count)
system.cpu.commitStats0.committedInstType::SimdCvt         3379      0.00%     65.47% # Class of committed instruction. (Count)
system.cpu.commitStats0.committedInstType::SimdMisc      7058345      1.75%     67.23% # Class of committed instruction. (Count)
system.cpu.commitStats0.committedInstType::SimdMult      9139113      2.27%     69.49% # Class of committed instruction. (Count)
system.cpu.commitStats0.committedInstType::SimdMultAcc      5759629      1.43%     70.92% # Class of committed instruction. (Count)
system.cpu.commitStats0.committedInstType::SimdMatMultAcc            0      0.00%     70.92% # Class of committed instruction. (Count)
system.cpu.commitStats0.committedInstType::SimdShift     18071790      4.49%     75.41% # Class of committed instruction. (Count)
system.cpu.commitStats0.committedInstType::SimdShiftAcc            0      0.00%     75.41% # Class of committed instruction. (Count)
system.cpu.commitStats0.committedInstType::SimdDiv            0      0.00%     75.41% # Class of committed instruction. (Count)
system.cpu.commitStats0.committedInstType::SimdSqrt            0      0.00%     75.41% # Class of committed instruction. (Count)
system.cpu.commitStats0.committedInstType::SimdFloatAdd            0      0.00%     75.41% # Class of committed instruction. (Count)
system.cpu.commitStats0.committedInstType::SimdFloatAlu            0      0.00%     75.41% # Class of committed instruction. (Count)
system.cpu.commitStats0.committedInstType::SimdFloatCmp            0      0.00%     75.41% # Class of committed instruction. (Count)
system.cpu.commitStats0.committedInstType::SimdFloatCvt            0      0.00%     75.41% # Class of committed instruction. (Count)
system.cpu.commitStats0.committedInstType::SimdFloatDiv            0      0.00%     75.41% # Class of committed instruction. (Count)
system.cpu.commitStats0.committedInstType::SimdFloatMisc            0      0.00%     75.41% # Class of committed instruction. (Count)
system.cpu.commitStats0.committedInstType::SimdFloatMult            0      0.00%     75.41% # Class of committed instruction. (Count)
system.cpu.commitStats0.committedInstType::SimdFloatMultAcc            0      0.00%     75.41% # Class of committed instruction. (Count)
system.cpu.commitStats0.committedInstType::SimdFloatMatMultAcc            0      0.00%     75.41% # Class of committed instruction. (Count)
system.cpu.commitStats0.committedInstType::SimdFloatSqrt            0      0.00%     75.41% # Class of committed instruction. (Count)
system.cpu.commitStats0.committedInstType::SimdReduceAdd            0      0.00%     75.41% # Class of committed instruction. (Count)
system.cpu.commitStats0.committedInstType::SimdReduceAlu            0      0.00%     75.41% # Class of committed instruction. (Count)
system.cpu.commitStats0.committedInstType::SimdReduceCmp            0      0.00%     75.41% # Class of committed instruction. (Count)
system.cpu.commitStats0.committedInstType::SimdFloatReduceAdd            0      0.00%     75.41% # Class of committed instruction. (Count)
system.cpu.commitStats0.committedInstType::SimdFloatReduceCmp            0      0.00%     75.41% # Class of committed instruction. (Count)
system.cpu.commitStats0.committedInstType::SimdAes            0      0.00%     75.41% # Class of committed instruction. (Count)
system.cpu.commitStats0.committedInstType::SimdAesMix            0      0.00%     75.41% # Class of committed instruction. (Count)
system.cpu.commitStats0.committedInstType::SimdSha1Hash            0      0.00%     75.41% # Class of committed instruction. (Count)
system.cpu.commitStats0.committedInstType::SimdSha1Hash2            0      0.00%     75.41% # Class of committed instruction. (Count)
system.cpu.commitStats0.committedInstType::SimdSha256Hash            0      0.00%     75.41% # Class of committed instruction. (Count)
system.cpu.commitStats0.committedInstType::SimdSha256Hash2            0      0.00%     75.41% # Class of committed instruction. (Count)
system.cpu.commitStats0.committedInstType::SimdShaSigma2            0      0.00%     75.41% # Class of committed instruction. (Count)
system.cpu.commitStats0.committedInstType::SimdShaSigma3            0      0.00%     75.41% # Class of committed instruction. (Count)
system.cpu.commitStats0.committedInstType::SimdPredAlu            0      0.00%     75.41% # Class of committed instruction. (Count)
system.cpu.commitStats0.committedInstType::Matrix            0      0.00%     75.41% # Class of committed instruction. (Count)
system.cpu.commitStats0.committedInstType::MatrixMov            0      0.00%     75.41% # Class of committed instruction. (Count)
system.cpu.commitStats0.committedInstType::MatrixOP            0      0.00%     75.41% # Class of committed instruction. (Count)
system.cpu.commitStats0.committedInstType::MemRead     62604532     15.54%     90.96% # Class of committed instruction. (Count)
system.cpu.commitStats0.committedInstType::MemWrite     36421519      9.04%    100.00% # Class of committed instruction. (Count)
system.cpu.commitStats0.committedInstType::FloatMemRead            0      0.00%    100.00% # Class of committed instruction. (Count)
system.cpu.commitStats0.committedInstType::FloatMemWrite            0      0.00%    100.00% # Class of committed instruction. (Count)
system.cpu.commitStats0.committedInstType::IprAccess            0      0.00%    100.00% # Class of committed instruction. (Count)
system.cpu.commitStats0.committedInstType::InstPrefetch            0      0.00%    100.00% # Class of committed instruction. (Count)
system.cpu.commitStats0.committedInstType::VectorUnitStrideLoad            0      0.00%    100.00% # Class of committed instruction. (Count)
system.cpu.commitStats0.committedInstType::VectorUnitStrideStore            0      0.00%    100.00% # Class of committed instruction. (Count)
system.cpu.commitStats0.committedInstType::VectorUnitStrideMaskLoad            0      0.00%    100.00% # Class of committed instruction. (Count)
system.cpu.commitStats0.committedInstType::VectorUnitStrideMaskStore            0      0.00%    100.00% # Class of committed instruction. (Count)
system.cpu.commitStats0.committedInstType::VectorStridedLoad            0      0.00%    100.00% # Class of committed instruction. (Count)
system.cpu.commitStats0.committedInstType::VectorStridedStore            0      0.00%    100.00% # Class of committed instruction. (Count)
system.cpu.commitStats0.committedInstType::VectorIndexedLoad            0      0.00%    100.00% # Class of committed instruction. (Count)
system.cpu.commitStats0.committedInstType::VectorIndexedStore            0      0.00%    100.00% # Class of committed instruction. (Count)
system.cpu.commitStats0.committedInstType::VectorUnitStrideFaultOnlyFirstLoad            0      0.00%    100.00% # Class of committed instruction. (Count)
system.cpu.commitStats0.committedInstType::VectorWholeRegisterLoad            0      0.00%    100.00% # Class of committed instruction. (Count)
system.cpu.commitStats0.committedInstType::VectorWholeRegisterStore            0      0.00%    100.00% # Class of committed instruction. (Count)
system.cpu.commitStats0.committedInstType::VectorIntegerArith            0      0.00%    100.00% # Class of committed instruction. (Count)
system.cpu.commitStats0.committedInstType::VectorFloatArith            0      0.00%    100.00% # Class of committed instruction. (Count)
system.cpu.commitStats0.committedInstType::VectorFloatConvert            0      0.00%    100.00% # Class of committed instruction. (Count)
system.cpu.commitStats0.committedInstType::VectorIntegerReduce            0      0.00%    100.00% # Class of committed instruction. (Count)
system.cpu.commitStats0.committedInstType::VectorFloatReduce            0      0.00%    100.00% # Class of committed instruction. (Count)
system.cpu.commitStats0.committedInstType::VectorMisc            0      0.00%    100.00% # Class of committed instruction. (Count)
system.cpu.commitStats0.committedInstType::VectorIntegerExtension            0      0.00%    100.00% # Class of committed instruction. (Count)
system.cpu.commitStats0.committedInstType::VectorConfig            0      0.00%    100.00% # Class of committed instruction. (Count)
system.cpu.commitStats0.committedInstType::total    402743996                       # Class of committed instruction. (Count)
system.cpu.commitStats0.committedControl::IsControl     27179330                       # Class of control type instructions committed (Count)
system.cpu.commitStats0.committedControl::IsDirectControl     22815863                       # Class of control type instructions committed (Count)
system.cpu.commitStats0.committedControl::IsIndirectControl      4363467                       # Class of control type instructions committed (Count)
system.cpu.commitStats0.committedControl::IsCondControl     20138186                       # Class of control type instructions committed (Count)
system.cpu.commitStats0.committedControl::IsUncondControl      7041144                       # Class of control type instructions committed (Count)
system.cpu.commitStats0.committedControl::IsCall      2457854                       # Class of control type instructions committed (Count)
system.cpu.commitStats0.committedControl::IsReturn      2457850                       # Class of control type instructions committed (Count)
system.cpu.dcache.demandHits::cpu.data       90695798                       # number of demand (read+write) hits (Count)
system.cpu.dcache.demandHits::total          90695798                       # number of demand (read+write) hits (Count)
system.cpu.dcache.overallHits::cpu.data      90817451                       # number of overall hits (Count)
system.cpu.dcache.overallHits::total         90817451                       # number of overall hits (Count)
system.cpu.dcache.demandMisses::cpu.data     10880269                       # number of demand (read+write) misses (Count)
system.cpu.dcache.demandMisses::total        10880269                       # number of demand (read+write) misses (Count)
system.cpu.dcache.overallMisses::cpu.data     10911695                       # number of overall misses (Count)
system.cpu.dcache.overallMisses::total       10911695                       # number of overall misses (Count)
system.cpu.dcache.demandMissLatency::cpu.data 226875215242                       # number of demand (read+write) miss ticks (Tick)
system.cpu.dcache.demandMissLatency::total 226875215242                       # number of demand (read+write) miss ticks (Tick)
system.cpu.dcache.overallMissLatency::cpu.data 226875215242                       # number of overall miss ticks (Tick)
system.cpu.dcache.overallMissLatency::total 226875215242                       # number of overall miss ticks (Tick)
system.cpu.dcache.demandAccesses::cpu.data    101576067                       # number of demand (read+write) accesses (Count)
system.cpu.dcache.demandAccesses::total     101576067                       # number of demand (read+write) accesses (Count)
system.cpu.dcache.overallAccesses::cpu.data    101729146                       # number of overall (read+write) accesses (Count)
system.cpu.dcache.overallAccesses::total    101729146                       # number of overall (read+write) accesses (Count)
system.cpu.dcache.demandMissRate::cpu.data     0.107114                       # miss rate for demand accesses (Ratio)
system.cpu.dcache.demandMissRate::total      0.107114                       # miss rate for demand accesses (Ratio)
system.cpu.dcache.overallMissRate::cpu.data     0.107262                       # miss rate for overall accesses (Ratio)
system.cpu.dcache.overallMissRate::total     0.107262                       # miss rate for overall accesses (Ratio)
system.cpu.dcache.demandAvgMissLatency::cpu.data 20851.985851                       # average overall miss latency in ticks ((Tick/Count))
system.cpu.dcache.demandAvgMissLatency::total 20851.985851                       # average overall miss latency in ticks ((Tick/Count))
system.cpu.dcache.overallAvgMissLatency::cpu.data 20791.931523                       # average overall miss latency ((Tick/Count))
system.cpu.dcache.overallAvgMissLatency::total 20791.931523                       # average overall miss latency ((Tick/Count))
system.cpu.dcache.blockedCycles::no_mshrs        83346                       # number of cycles access was blocked (Cycle)
system.cpu.dcache.blockedCycles::no_targets         5542                       # number of cycles access was blocked (Cycle)
system.cpu.dcache.blockedCauses::no_mshrs        17035                       # number of times access was blocked (Count)
system.cpu.dcache.blockedCauses::no_targets          234                       # number of times access was blocked (Count)
system.cpu.dcache.avgBlocked::no_mshrs       4.892633                       # average number of cycles each access was blocked ((Cycle/Count))
system.cpu.dcache.avgBlocked::no_targets    23.683761                       # average number of cycles each access was blocked ((Cycle/Count))
system.cpu.dcache.writebacks::writebacks      2303293                       # number of writebacks (Count)
system.cpu.dcache.writebacks::total           2303293                       # number of writebacks (Count)
system.cpu.dcache.demandMshrHits::cpu.data      7993416                       # number of demand (read+write) MSHR hits (Count)
system.cpu.dcache.demandMshrHits::total       7993416                       # number of demand (read+write) MSHR hits (Count)
system.cpu.dcache.overallMshrHits::cpu.data      7993416                       # number of overall MSHR hits (Count)
system.cpu.dcache.overallMshrHits::total      7993416                       # number of overall MSHR hits (Count)
system.cpu.dcache.demandMshrMisses::cpu.data      2886853                       # number of demand (read+write) MSHR misses (Count)
system.cpu.dcache.demandMshrMisses::total      2886853                       # number of demand (read+write) MSHR misses (Count)
system.cpu.dcache.overallMshrMisses::cpu.data      2906299                       # number of overall MSHR misses (Count)
system.cpu.dcache.overallMshrMisses::cpu.dcache.prefetcher       961946                       # number of overall MSHR misses (Count)
system.cpu.dcache.overallMshrMisses::total      3868245                       # number of overall MSHR misses (Count)
system.cpu.dcache.demandMshrMissLatency::cpu.data  58367413604                       # number of demand (read+write) MSHR miss ticks (Tick)
system.cpu.dcache.demandMshrMissLatency::total  58367413604                       # number of demand (read+write) MSHR miss ticks (Tick)
system.cpu.dcache.overallMshrMissLatency::cpu.data  58881030456                       # number of overall MSHR miss ticks (Tick)
system.cpu.dcache.overallMshrMissLatency::cpu.dcache.prefetcher  18484822304                       # number of overall MSHR miss ticks (Tick)
system.cpu.dcache.overallMshrMissLatency::total  77365852760                       # number of overall MSHR miss ticks (Tick)
system.cpu.dcache.demandMshrMissRate::cpu.data     0.028421                       # mshr miss ratio for demand accesses (Ratio)
system.cpu.dcache.demandMshrMissRate::total     0.028421                       # mshr miss ratio for demand accesses (Ratio)
system.cpu.dcache.overallMshrMissRate::cpu.data     0.028569                       # mshr miss ratio for overall accesses (Ratio)
system.cpu.dcache.overallMshrMissRate::cpu.dcache.prefetcher          inf                       # mshr miss ratio for overall accesses (Ratio)
system.cpu.dcache.overallMshrMissRate::total     0.038025                       # mshr miss ratio for overall accesses (Ratio)
system.cpu.dcache.demandAvgMshrMissLatency::cpu.data 20218.353205                       # average overall mshr miss latency ((Tick/Count))
system.cpu.dcache.demandAvgMshrMissLatency::total 20218.353205                       # average overall mshr miss latency ((Tick/Count))
system.cpu.dcache.overallAvgMshrMissLatency::cpu.data 20259.797927                       # average overall mshr miss latency ((Tick/Count))
system.cpu.dcache.overallAvgMshrMissLatency::cpu.dcache.prefetcher 19216.070657                       # average overall mshr miss latency ((Tick/Count))
system.cpu.dcache.overallAvgMshrMissLatency::total 20000.246303                       # average overall mshr miss latency ((Tick/Count))
system.cpu.dcache.replacements                3707474                       # number of replacements (Count)
system.cpu.dcache.HardPFReq.mshrMisses::cpu.dcache.prefetcher       961946                       # number of HardPFReq MSHR misses (Count)
system.cpu.dcache.HardPFReq.mshrMisses::total       961946                       # number of HardPFReq MSHR misses (Count)
system.cpu.dcache.HardPFReq.mshrMissLatency::cpu.dcache.prefetcher  18484822304                       # number of HardPFReq MSHR miss ticks (Tick)
system.cpu.dcache.HardPFReq.mshrMissLatency::total  18484822304                       # number of HardPFReq MSHR miss ticks (Tick)
system.cpu.dcache.HardPFReq.mshrMissRate::cpu.dcache.prefetcher          inf                       # mshr miss rate for HardPFReq accesses (Ratio)
system.cpu.dcache.HardPFReq.mshrMissRate::total          inf                       # mshr miss rate for HardPFReq accesses (Ratio)
system.cpu.dcache.HardPFReq.avgMshrMissLatency::cpu.dcache.prefetcher 19216.070657                       # average HardPFReq mshr miss latency ((Tick/Count))
system.cpu.dcache.HardPFReq.avgMshrMissLatency::total 19216.070657                       # average HardPFReq mshr miss latency ((Tick/Count))
system.cpu.dcache.LoadLockedReq.hits::cpu.data         7233                       # number of LoadLockedReq hits (Count)
system.cpu.dcache.LoadLockedReq.hits::total         7233                       # number of LoadLockedReq hits (Count)
system.cpu.dcache.LoadLockedReq.misses::cpu.data          793                       # number of LoadLockedReq misses (Count)
system.cpu.dcache.LoadLockedReq.misses::total          793                       # number of LoadLockedReq misses (Count)
system.cpu.dcache.LoadLockedReq.missLatency::cpu.data     19705448                       # number of LoadLockedReq miss ticks (Tick)
system.cpu.dcache.LoadLockedReq.missLatency::total     19705448                       # number of LoadLockedReq miss ticks (Tick)
system.cpu.dcache.LoadLockedReq.accesses::cpu.data         8026                       # number of LoadLockedReq accesses(hits+misses) (Count)
system.cpu.dcache.LoadLockedReq.accesses::total         8026                       # number of LoadLockedReq accesses(hits+misses) (Count)
system.cpu.dcache.LoadLockedReq.missRate::cpu.data     0.098804                       # miss rate for LoadLockedReq accesses (Ratio)
system.cpu.dcache.LoadLockedReq.missRate::total     0.098804                       # miss rate for LoadLockedReq accesses (Ratio)
system.cpu.dcache.LoadLockedReq.avgMissLatency::cpu.data 24849.240858                       # average LoadLockedReq miss latency ((Tick/Count))
system.cpu.dcache.LoadLockedReq.avgMissLatency::total 24849.240858                       # average LoadLockedReq miss latency ((Tick/Count))
system.cpu.dcache.LoadLockedReq.mshrHits::cpu.data          784                       # number of LoadLockedReq MSHR hits (Count)
system.cpu.dcache.LoadLockedReq.mshrHits::total          784                       # number of LoadLockedReq MSHR hits (Count)
system.cpu.dcache.LoadLockedReq.mshrMisses::cpu.data            9                       # number of LoadLockedReq MSHR misses (Count)
system.cpu.dcache.LoadLockedReq.mshrMisses::total            9                       # number of LoadLockedReq MSHR misses (Count)
system.cpu.dcache.LoadLockedReq.mshrMissLatency::cpu.data      1115744                       # number of LoadLockedReq MSHR miss ticks (Tick)
system.cpu.dcache.LoadLockedReq.mshrMissLatency::total      1115744                       # number of LoadLockedReq MSHR miss ticks (Tick)
system.cpu.dcache.LoadLockedReq.mshrMissRate::cpu.data     0.001121                       # mshr miss rate for LoadLockedReq accesses (Ratio)
system.cpu.dcache.LoadLockedReq.mshrMissRate::total     0.001121                       # mshr miss rate for LoadLockedReq accesses (Ratio)
system.cpu.dcache.LoadLockedReq.avgMshrMissLatency::cpu.data 123971.555556                       # average LoadLockedReq mshr miss latency ((Tick/Count))
system.cpu.dcache.LoadLockedReq.avgMshrMissLatency::total 123971.555556                       # average LoadLockedReq mshr miss latency ((Tick/Count))
system.cpu.dcache.ReadReq.hits::cpu.data     61363081                       # number of ReadReq hits (Count)
system.cpu.dcache.ReadReq.hits::total        61363081                       # number of ReadReq hits (Count)
system.cpu.dcache.ReadReq.misses::cpu.data      3707075                       # number of ReadReq misses (Count)
system.cpu.dcache.ReadReq.misses::total       3707075                       # number of ReadReq misses (Count)
system.cpu.dcache.ReadReq.missLatency::cpu.data  79394810320                       # number of ReadReq miss ticks (Tick)
system.cpu.dcache.ReadReq.missLatency::total  79394810320                       # number of ReadReq miss ticks (Tick)
system.cpu.dcache.ReadReq.accesses::cpu.data     65070156                       # number of ReadReq accesses(hits+misses) (Count)
system.cpu.dcache.ReadReq.accesses::total     65070156                       # number of ReadReq accesses(hits+misses) (Count)
system.cpu.dcache.ReadReq.missRate::cpu.data     0.056970                       # miss rate for ReadReq accesses (Ratio)
system.cpu.dcache.ReadReq.missRate::total     0.056970                       # miss rate for ReadReq accesses (Ratio)
system.cpu.dcache.ReadReq.avgMissLatency::cpu.data 21417.103868                       # average ReadReq miss latency ((Tick/Count))
system.cpu.dcache.ReadReq.avgMissLatency::total 21417.103868                       # average ReadReq miss latency ((Tick/Count))
system.cpu.dcache.ReadReq.mshrHits::cpu.data      2162642                       # number of ReadReq MSHR hits (Count)
system.cpu.dcache.ReadReq.mshrHits::total      2162642                       # number of ReadReq MSHR hits (Count)
system.cpu.dcache.ReadReq.mshrMisses::cpu.data      1544433                       # number of ReadReq MSHR misses (Count)
system.cpu.dcache.ReadReq.mshrMisses::total      1544433                       # number of ReadReq MSHR misses (Count)
system.cpu.dcache.ReadReq.mshrMissLatency::cpu.data  29830935708                       # number of ReadReq MSHR miss ticks (Tick)
system.cpu.dcache.ReadReq.mshrMissLatency::total  29830935708                       # number of ReadReq MSHR miss ticks (Tick)
system.cpu.dcache.ReadReq.mshrMissRate::cpu.data     0.023735                       # mshr miss rate for ReadReq accesses (Ratio)
system.cpu.dcache.ReadReq.mshrMissRate::total     0.023735                       # mshr miss rate for ReadReq accesses (Ratio)
system.cpu.dcache.ReadReq.avgMshrMissLatency::cpu.data 19315.137470                       # average ReadReq mshr miss latency ((Tick/Count))
system.cpu.dcache.ReadReq.avgMshrMissLatency::total 19315.137470                       # average ReadReq mshr miss latency ((Tick/Count))
system.cpu.dcache.SoftPFReq.hits::cpu.data       121653                       # number of SoftPFReq hits (Count)
system.cpu.dcache.SoftPFReq.hits::total        121653                       # number of SoftPFReq hits (Count)
system.cpu.dcache.SoftPFReq.misses::cpu.data        31426                       # number of SoftPFReq misses (Count)
system.cpu.dcache.SoftPFReq.misses::total        31426                       # number of SoftPFReq misses (Count)
system.cpu.dcache.SoftPFReq.accesses::cpu.data       153079                       # number of SoftPFReq accesses(hits+misses) (Count)
system.cpu.dcache.SoftPFReq.accesses::total       153079                       # number of SoftPFReq accesses(hits+misses) (Count)
system.cpu.dcache.SoftPFReq.missRate::cpu.data     0.205293                       # miss rate for SoftPFReq accesses (Ratio)
system.cpu.dcache.SoftPFReq.missRate::total     0.205293                       # miss rate for SoftPFReq accesses (Ratio)
system.cpu.dcache.SoftPFReq.mshrMisses::cpu.data        19446                       # number of SoftPFReq MSHR misses (Count)
system.cpu.dcache.SoftPFReq.mshrMisses::total        19446                       # number of SoftPFReq MSHR misses (Count)
system.cpu.dcache.SoftPFReq.mshrMissLatency::cpu.data    513616852                       # number of SoftPFReq MSHR miss ticks (Tick)
system.cpu.dcache.SoftPFReq.mshrMissLatency::total    513616852                       # number of SoftPFReq MSHR miss ticks (Tick)
system.cpu.dcache.SoftPFReq.mshrMissRate::cpu.data     0.127032                       # mshr miss rate for SoftPFReq accesses (Ratio)
system.cpu.dcache.SoftPFReq.mshrMissRate::total     0.127032                       # mshr miss rate for SoftPFReq accesses (Ratio)
system.cpu.dcache.SoftPFReq.avgMshrMissLatency::cpu.data 26412.467963                       # average SoftPFReq mshr miss latency ((Tick/Count))
system.cpu.dcache.SoftPFReq.avgMshrMissLatency::total 26412.467963                       # average SoftPFReq mshr miss latency ((Tick/Count))
system.cpu.dcache.StoreCondReq.hits::cpu.data         5184                       # number of StoreCondReq hits (Count)
system.cpu.dcache.StoreCondReq.hits::total         5184                       # number of StoreCondReq hits (Count)
system.cpu.dcache.StoreCondReq.misses::cpu.data          781                       # number of StoreCondReq misses (Count)
system.cpu.dcache.StoreCondReq.misses::total          781                       # number of StoreCondReq misses (Count)
system.cpu.dcache.StoreCondReq.missLatency::cpu.data      7063364                       # number of StoreCondReq miss ticks (Tick)
system.cpu.dcache.StoreCondReq.missLatency::total      7063364                       # number of StoreCondReq miss ticks (Tick)
system.cpu.dcache.StoreCondReq.accesses::cpu.data         5965                       # number of StoreCondReq accesses(hits+misses) (Count)
system.cpu.dcache.StoreCondReq.accesses::total         5965                       # number of StoreCondReq accesses(hits+misses) (Count)
system.cpu.dcache.StoreCondReq.missRate::cpu.data     0.130930                       # miss rate for StoreCondReq accesses (Ratio)
system.cpu.dcache.StoreCondReq.missRate::total     0.130930                       # miss rate for StoreCondReq accesses (Ratio)
system.cpu.dcache.StoreCondReq.avgMissLatency::cpu.data         9044                       # average StoreCondReq miss latency ((Tick/Count))
system.cpu.dcache.StoreCondReq.avgMissLatency::total         9044                       # average StoreCondReq miss latency ((Tick/Count))
system.cpu.dcache.StoreCondReq.mshrMisses::cpu.data          781                       # number of StoreCondReq MSHR misses (Count)
system.cpu.dcache.StoreCondReq.mshrMisses::total          781                       # number of StoreCondReq MSHR misses (Count)
system.cpu.dcache.StoreCondReq.mshrMissLatency::cpu.data      5576340                       # number of StoreCondReq MSHR miss ticks (Tick)
system.cpu.dcache.StoreCondReq.mshrMissLatency::total      5576340                       # number of StoreCondReq MSHR miss ticks (Tick)
system.cpu.dcache.StoreCondReq.mshrMissRate::cpu.data     0.130930                       # mshr miss rate for StoreCondReq accesses (Ratio)
system.cpu.dcache.StoreCondReq.mshrMissRate::total     0.130930                       # mshr miss rate for StoreCondReq accesses (Ratio)
system.cpu.dcache.StoreCondReq.avgMshrMissLatency::cpu.data         7140                       # average StoreCondReq mshr miss latency ((Tick/Count))
system.cpu.dcache.StoreCondReq.avgMshrMissLatency::total         7140                       # average StoreCondReq mshr miss latency ((Tick/Count))
system.cpu.dcache.WriteLineReq.hits::cpu.data        63956                       # number of WriteLineReq hits (Count)
system.cpu.dcache.WriteLineReq.hits::total        63956                       # number of WriteLineReq hits (Count)
system.cpu.dcache.WriteLineReq.misses::cpu.data        10221                       # number of WriteLineReq misses (Count)
system.cpu.dcache.WriteLineReq.misses::total        10221                       # number of WriteLineReq misses (Count)
system.cpu.dcache.WriteLineReq.missLatency::cpu.data    406696093                       # number of WriteLineReq miss ticks (Tick)
system.cpu.dcache.WriteLineReq.missLatency::total    406696093                       # number of WriteLineReq miss ticks (Tick)
system.cpu.dcache.WriteLineReq.accesses::cpu.data        74177                       # number of WriteLineReq accesses(hits+misses) (Count)
system.cpu.dcache.WriteLineReq.accesses::total        74177                       # number of WriteLineReq accesses(hits+misses) (Count)
system.cpu.dcache.WriteLineReq.missRate::cpu.data     0.137792                       # miss rate for WriteLineReq accesses (Ratio)
system.cpu.dcache.WriteLineReq.missRate::total     0.137792                       # miss rate for WriteLineReq accesses (Ratio)
system.cpu.dcache.WriteLineReq.avgMissLatency::cpu.data 39790.244888                       # average WriteLineReq miss latency ((Tick/Count))
system.cpu.dcache.WriteLineReq.avgMissLatency::total 39790.244888                       # average WriteLineReq miss latency ((Tick/Count))
system.cpu.dcache.WriteLineReq.mshrHits::cpu.data         4571                       # number of WriteLineReq MSHR hits (Count)
system.cpu.dcache.WriteLineReq.mshrHits::total         4571                       # number of WriteLineReq MSHR hits (Count)
system.cpu.dcache.WriteLineReq.mshrMisses::cpu.data         5650                       # number of WriteLineReq MSHR misses (Count)
system.cpu.dcache.WriteLineReq.mshrMisses::total         5650                       # number of WriteLineReq MSHR misses (Count)
system.cpu.dcache.WriteLineReq.mshrMissLatency::cpu.data    246953350                       # number of WriteLineReq MSHR miss ticks (Tick)
system.cpu.dcache.WriteLineReq.mshrMissLatency::total    246953350                       # number of WriteLineReq MSHR miss ticks (Tick)
system.cpu.dcache.WriteLineReq.mshrMissRate::cpu.data     0.076169                       # mshr miss rate for WriteLineReq accesses (Ratio)
system.cpu.dcache.WriteLineReq.mshrMissRate::total     0.076169                       # mshr miss rate for WriteLineReq accesses (Ratio)
system.cpu.dcache.WriteLineReq.avgMshrMissLatency::cpu.data 43708.557522                       # average WriteLineReq mshr miss latency ((Tick/Count))
system.cpu.dcache.WriteLineReq.avgMshrMissLatency::total 43708.557522                       # average WriteLineReq mshr miss latency ((Tick/Count))
system.cpu.dcache.WriteReq.hits::cpu.data     29268761                       # number of WriteReq hits (Count)
system.cpu.dcache.WriteReq.hits::total       29268761                       # number of WriteReq hits (Count)
[...]
system.mem_ctrl.dram.numReads::total            28336                       # Number of read requests responded to by this memory (Count)
system.mem_ctrl.dram.numWrites::writebacks         7364                       # Number of write requests responded to by this memory (Count)
system.mem_ctrl.dram.numWrites::total            7364                       # Number of write requests responded to by this memory (Count)
system.mem_ctrl.dram.bwRead::cpu.inst         3078222                       # Total read bandwidth from this memory ((Byte/Second))
system.mem_ctrl.dram.bwRead::cpu.data         4474876                       # Total read bandwidth from this memory ((Byte/Second))
system.mem_ctrl.dram.bwRead::cpu.dcache.prefetcher      2691674                       # Total read bandwidth from this memory ((Byte/Second))
system.mem_ctrl.dram.bwRead::cpu.l2cache.prefetcher      1558272                       # Total read bandwidth from this memory ((Byte/Second))
system.mem_ctrl.dram.bwRead::total           11803044                       # Total read bandwidth from this memory ((Byte/Second))
system.mem_ctrl.dram.bwInstRead::cpu.inst      3078222                       # Instruction read bandwidth from this memory ((Byte/Second))
system.mem_ctrl.dram.bwInstRead::total        3078222                       # Instruction read bandwidth from this memory ((Byte/Second))
system.mem_ctrl.dram.bwWrite::writebacks      3067392                       # Write bandwidth from this memory ((Byte/Second))
system.mem_ctrl.dram.bwWrite::total           3067392                       # Write bandwidth from this memory ((Byte/Second))
system.mem_ctrl.dram.bwTotal::writebacks      3067392                       # Total bandwidth to/from this memory ((Byte/Second))
system.mem_ctrl.dram.bwTotal::cpu.inst        3078222                       # Total bandwidth to/from this memory ((Byte/Second))
system.mem_ctrl.dram.bwTotal::cpu.data        4474876                       # Total bandwidth to/from this memory ((Byte/Second))
system.mem_ctrl.dram.bwTotal::cpu.dcache.prefetcher      2691674                       # Total bandwidth to/from this memory ((Byte/Second))
system.mem_ctrl.dram.bwTotal::cpu.l2cache.prefetcher      1558272                       # Total bandwidth to/from this memory ((Byte/Second))
system.mem_ctrl.dram.bwTotal::total          14870435                       # Total bandwidth to/from this memory ((Byte/Second))
system.mem_ctrl.dram.readBursts                 25503                       # Number of DRAM read bursts (Count)
system.mem_ctrl.dram.writeBursts                 6882                       # Number of DRAM write bursts (Count)
system.mem_ctrl.dram.perBankRdBursts::0          1393                       # Per bank write bursts (Count)
system.mem_ctrl.dram.perBankRdBursts::1          1358                       # Per bank write bursts (Count)
system.mem_ctrl.dram.perBankRdBursts::2          4473                       # Per bank write bursts (Count)
system.mem_ctrl.dram.perBankRdBursts::3          1340                       # Per bank write bursts (Count)
system.mem_ctrl.dram.perBankRdBursts::4          1306                       # Per bank write bursts (Count)
system.mem_ctrl.dram.perBankRdBursts::5          1271                       # Per bank write bursts (Count)
system.mem_ctrl.dram.perBankRdBursts::6          1469                       # Per bank write bursts (Count)
system.mem_ctrl.dram.perBankRdBursts::7          1501                       # Per bank write bursts (Count)
system.mem_ctrl.dram.perBankRdBursts::8          1347                       # Per bank write bursts (Count)
system.mem_ctrl.dram.perBankRdBursts::9          1273                       # Per bank write bursts (Count)
system.mem_ctrl.dram.perBankRdBursts::10         2553                       # Per bank write bursts (Count)
system.mem_ctrl.dram.perBankRdBursts::11          986                       # Per bank write bursts (Count)
system.mem_ctrl.dram.perBankRdBursts::12         1225                       # Per bank write bursts (Count)
system.mem_ctrl.dram.perBankRdBursts::13         1211                       # Per bank write bursts (Count)
system.mem_ctrl.dram.perBankRdBursts::14         1294                       # Per bank write bursts (Count)
system.mem_ctrl.dram.perBankRdBursts::15         1503                       # Per bank write bursts (Count)
system.mem_ctrl.dram.perBankWrBursts::0           236                       # Per bank write bursts (Count)
system.mem_ctrl.dram.perBankWrBursts::1           266                       # Per bank write bursts (Count)
system.mem_ctrl.dram.perBankWrBursts::2          1438                       # Per bank write bursts (Count)
system.mem_ctrl.dram.perBankWrBursts::3            34                       # Per bank write bursts (Count)
system.mem_ctrl.dram.perBankWrBursts::4            59                       # Per bank write bursts (Count)
system.mem_ctrl.dram.perBankWrBursts::5           153                       # Per bank write bursts (Count)
system.mem_ctrl.dram.perBankWrBursts::6           392                       # Per bank write bursts (Count)
system.mem_ctrl.dram.perBankWrBursts::7           436                       # Per bank write bursts (Count)
system.mem_ctrl.dram.perBankWrBursts::8           309                       # Per bank write bursts (Count)
system.mem_ctrl.dram.perBankWrBursts::9           330                       # Per bank write bursts (Count)
system.mem_ctrl.dram.perBankWrBursts::10         1632                       # Per bank write bursts (Count)
system.mem_ctrl.dram.perBankWrBursts::11          157                       # Per bank write bursts (Count)
system.mem_ctrl.dram.perBankWrBursts::12          293                       # Per bank write bursts (Count)
system.mem_ctrl.dram.perBankWrBursts::13          287                       # Per bank write bursts (Count)
system.mem_ctrl.dram.perBankWrBursts::14          408                       # Per bank write bursts (Count)
system.mem_ctrl.dram.perBankWrBursts::15          452                       # Per bank write bursts (Count)
system.mem_ctrl.dram.totQLat                597194346                       # Total ticks spent queuing (Tick)
system.mem_ctrl.dram.totBusLat              127515000                       # Total ticks spent in databus transfers (Tick)
system.mem_ctrl.dram.totMemAccLat          1075375596                       # Total ticks spent from burst creation until serviced by the DRAM (Tick)
system.mem_ctrl.dram.avgQLat                 23416.63                       # Average queueing delay per DRAM burst ((Tick/Count))
system.mem_ctrl.dram.avgBusLat                5000.00                       # Average bus latency per DRAM burst ((Tick/Count))
system.mem_ctrl.dram.avgMemAccLat            42166.63                       # Average memory access latency per DRAM burst ((Tick/Count))
system.mem_ctrl.dram.readRowHits                19875                       # Number of row buffer hits during reads (Count)
system.mem_ctrl.dram.writeRowHits                4671                       # Number of row buffer hits during writes (Count)
system.mem_ctrl.dram.readRowHitRate             77.93                       # Row buffer hit rate for reads (Ratio)
system.mem_ctrl.dram.writeRowHitRate            67.87                       # Row buffer hit rate for writes (Ratio)
system.mem_ctrl.dram.bytesPerActivate::samples         7833                       # Bytes accessed per row activation (Byte)
system.mem_ctrl.dram.bytesPerActivate::mean   264.472871                       # Bytes accessed per row activation (Byte)
system.mem_ctrl.dram.bytesPerActivate::gmean   162.275443                       # Bytes accessed per row activation (Byte)
system.mem_ctrl.dram.bytesPerActivate::stdev   290.556096                       # Bytes accessed per row activation (Byte)
system.mem_ctrl.dram.bytesPerActivate::0-127         3144     40.14%     40.14% # Bytes accessed per row activation (Byte)
system.mem_ctrl.dram.bytesPerActivate::128-255         1957     24.98%     65.12% # Bytes accessed per row activation (Byte)
system.mem_ctrl.dram.bytesPerActivate::256-383          895     11.43%     76.55% # Bytes accessed per row activation (Byte)
system.mem_ctrl.dram.bytesPerActivate::384-511          549      7.01%     83.56% # Bytes accessed per row activation (Byte)
system.mem_ctrl.dram.bytesPerActivate::512-639          274      3.50%     87.05% # Bytes accessed per row activation (Byte)
system.mem_ctrl.dram.bytesPerActivate::640-767          170      2.17%     89.23% # Bytes accessed per row activation (Byte)
system.mem_ctrl.dram.bytesPerActivate::768-895          104      1.33%     90.55% # Bytes accessed per row activation (Byte)
system.mem_ctrl.dram.bytesPerActivate::896-1023           65      0.83%     91.38% # Bytes accessed per row activation (Byte)
system.mem_ctrl.dram.bytesPerActivate::1024-1151          675      8.62%    100.00% # Bytes accessed per row activation (Byte)
system.mem_ctrl.dram.bytesPerActivate::total         7833                       # Bytes accessed per row activation (Byte)
system.mem_ctrl.dram.bytesRead                1632192                       # Total bytes read (Byte)
system.mem_ctrl.dram.bytesWritten              440448                       # Total bytes written (Byte)
system.mem_ctrl.dram.avgRdBW                10.622989                       # Average DRAM read bandwidth in MiBytes/s ((Byte/Second))
system.mem_ctrl.dram.avgWrBW                 2.866620                       # Average DRAM write bandwidth in MiBytes/s ((Byte/Second))
system.mem_ctrl.dram.peakBW                  12800.00                       # Theoretical peak bandwidth in MiByte/s ((Byte/Second))
system.mem_ctrl.dram.busUtil                     0.11                       # Data bus utilization in percentage (Ratio)
system.mem_ctrl.dram.busUtilRead                 0.08                       # Data bus utilization in percentage for reads (Ratio)
system.mem_ctrl.dram.busUtilWrite                0.02                       # Data bus utilization in percentage for writes (Ratio)
system.mem_ctrl.dram.pageHitRate                75.79                       # Row buffer hit rate, read and write combined (Ratio)
system.mem_ctrl.dram.power_state.pwrStateResidencyTicks::UNDEFINED 153647150356                       # Cumulative time (in ticks) in various power states (Tick)
system.mem_ctrl.dram.rank0.actEnergy         31216080                       # Energy for activate commands per rank (pJ) (Joule)
system.mem_ctrl.dram.rank0.preEnergy         16576560                       # Energy for precharge commands per rank (pJ) (Joule)
system.mem_ctrl.dram.rank0.readEnergy       100752540                       # Energy for read commands per rank (pJ) (Joule)
system.mem_ctrl.dram.rank0.writeEnergy       15733080                       # Energy for write commands per rank (pJ) (Joule)
system.mem_ctrl.dram.rank0.refreshEnergy 12128691120.000002                       # Energy for refresh commands per rank (pJ) (Joule)
system.mem_ctrl.dram.rank0.actBackEnergy   6349711080                       # Energy for active background per rank (pJ) (Joule)
system.mem_ctrl.dram.rank0.preBackEnergy  53653380960                       # Energy for precharge background per rank (pJ) (Joule)
system.mem_ctrl.dram.rank0.actPowerDownEnergy            0                       # Energy for active power-down per rank (pJ) (Joule)
system.mem_ctrl.dram.rank0.prePowerDownEnergy            0                       # Energy for precharge power-down per rank (pJ) (Joule)
system.mem_ctrl.dram.rank0.selfRefreshEnergy            0                       # Energy for self refresh per rank (pJ) (Joule)
system.mem_ctrl.dram.rank0.totalEnergy    72296061420                       # Total energy per rank (pJ) (Joule)
system.mem_ctrl.dram.rank0.averagePower    470.533044                       # Core power per rank (mW) (Watt)
system.mem_ctrl.dram.rank0.totalIdleTime            0                       # Total Idle time Per DRAM Rank (Tick)
system.mem_ctrl.dram.rank0.pwrStateTime::IDLE 139417683348                       # Time in different power states (Tick)
system.mem_ctrl.dram.rank0.pwrStateTime::REF   5130580000                       # Time in different power states (Tick)
system.mem_ctrl.dram.rank0.pwrStateTime::SREF            0                       # Time in different power states (Tick)
system.mem_ctrl.dram.rank0.pwrStateTime::PRE_PDN            0                       # Time in different power states (Tick)
system.mem_ctrl.dram.rank0.pwrStateTime::ACT   9098887008                       # Time in different power states (Tick)
system.mem_ctrl.dram.rank0.pwrStateTime::ACT_PDN            0                       # Time in different power states (Tick)
system.mem_ctrl.dram.rank1.actEnergy         24754380                       # Energy for activate commands per rank (pJ) (Joule)
system.mem_ctrl.dram.rank1.preEnergy         13149675                       # Energy for precharge commands per rank (pJ) (Joule)
system.mem_ctrl.dram.rank1.readEnergy        81338880                       # Energy for read commands per rank (pJ) (Joule)
system.mem_ctrl.dram.rank1.writeEnergy       20190960                       # Energy for write commands per rank (pJ) (Joule)
system.mem_ctrl.dram.rank1.refreshEnergy 12128691120.000002                       # Energy for refresh commands per rank (pJ) (Joule)
system.mem_ctrl.dram.rank1.actBackEnergy   4854882090                       # Energy for active background per rank (pJ) (Joule)
system.mem_ctrl.dram.rank1.preBackEnergy  54912184320                       # Energy for precharge background per rank (pJ) (Joule)
system.mem_ctrl.dram.rank1.actPowerDownEnergy            0                       # Energy for active power-down per rank (pJ) (Joule)
system.mem_ctrl.dram.rank1.prePowerDownEnergy            0                       # Energy for precharge power-down per rank (pJ) (Joule)
system.mem_ctrl.dram.rank1.selfRefreshEnergy            0                       # Energy for self refresh per rank (pJ) (Joule)
system.mem_ctrl.dram.rank1.totalEnergy    72035191425                       # Total energy per rank (pJ) (Joule)
system.mem_ctrl.dram.rank1.averagePower    468.835193                       # Core power per rank (mW) (Watt)
system.mem_ctrl.dram.rank1.totalIdleTime            0                       # Total Idle time Per DRAM Rank (Tick)
system.mem_ctrl.dram.rank1.pwrStateTime::IDLE 142706870676                       # Time in different power states (Tick)
system.mem_ctrl.dram.rank1.pwrStateTime::REF   5130580000                       # Time in different power states (Tick)
system.mem_ctrl.dram.rank1.pwrStateTime::SREF            0                       # Time in different power states (Tick)
system.mem_ctrl.dram.rank1.pwrStateTime::PRE_PDN            0                       # Time in different power states (Tick)
system.mem_ctrl.dram.rank1.pwrStateTime::ACT   5809699680                       # Time in different power states (Tick)
system.mem_ctrl.dram.rank1.pwrStateTime::ACT_PDN            0                       # Time in different power states (Tick)
system.mem_ctrl.power_state.pwrStateResidencyTicks::UNDEFINED 153647150356                       # Cumulative time (in ticks) in various power states (Tick)
system.membus.transDist::ReadResp               22030                       # Transaction distribution (Count)
system.membus.transDist::WritebackDirty          7364                       # Transaction distribution (Count)
system.membus.transDist::CleanEvict              6712                       # Transaction distribution (Count)
system.membus.transDist::ReadExReq               6306                       # Transaction distribution (Count)
system.membus.transDist::ReadExResp              6306                       # Transaction distribution (Count)
system.membus.transDist::ReadSharedReq          22030                       # Transaction distribution (Count)
system.membus.transDist::InvalidateReq           2129                       # Transaction distribution (Count)
system.membus.pktCount_system.l3cache.mem_side_port::system.mem_ctrl.port        72877                       # Packet count per connected requestor and responder (Count)
system.membus.pktCount::total                   72877                       # Packet count per connected requestor and responder (Count)
system.membus.pktSize_system.l3cache.mem_side_port::system.mem_ctrl.port      2284800                       # Cumulative packet size per connected requestor and responder (Byte)
system.membus.pktSize::total                  2284800                       # Cumulative packet size per connected requestor and responder (Byte)
system.membus.snoops                                0                       # Total snoops (Count)
system.membus.snoopTraffic                          0                       # Total snoop traffic (Byte)
system.membus.snoopFanout::samples              30465                       # Request fanout histogram (Count)
system.membus.snoopFanout::mean                     0                       # Request fanout histogram (Count)
system.membus.snoopFanout::stdev                    0                       # Request fanout histogram (Count)
system.membus.snoopFanout::underflows               0      0.00%      0.00% # Request fanout histogram (Count)
system.membus.snoopFanout::0                    30465    100.00%    100.00% # Request fanout histogram (Count)
system.membus.snoopFanout::1                        0      0.00%    100.00% # Request fanout histogram (Count)
system.membus.snoopFanout::overflows                0      0.00%    100.00% # Request fanout histogram (Count)
system.membus.snoopFanout::min_value                0                       # Request fanout histogram (Count)
system.membus.snoopFanout::max_value                0                       # Request fanout histogram (Count)
system.membus.snoopFanout::total                30465                       # Request fanout histogram (Count)
system.membus.power_state.pwrStateResidencyTicks::UNDEFINED 153647150356                       # Cumulative time (in ticks) in various power states (Tick)
system.membus.reqLayer0.occupancy            35222572                       # Layer occupancy (ticks) (Tick)
system.membus.reqLayer0.utilization               0.0                       # Layer utilization (Ratio)
system.membus.respLayer0.occupancy           74900514                       # Layer occupancy (ticks) (Tick)
system.membus.respLayer0.utilization              0.0                       # Layer utilization (Ratio)
system.membus.snoop_filter.totRequests          44541                       # Total number of requests made to the snoop filter. (Count)
system.membus.snoop_filter.hitSingleRequests        14076                       # Number of requests hitting in the snoop filter with a single holder of the requested data. (Count)
system.membus.snoop_filter.hitMultiRequests            0                       # Number of requests hitting in the snoop filter with multiple (>1) holders of the requested data. (Count)
system.membus.snoop_filter.totSnoops                0                       # Total number of snoops made to the snoop filter. (Count)
system.membus.snoop_filter.hitSingleSnoops            0                       # Number of snoops hitting in the snoop filter with a single holder of the requested data. (Count)
system.membus.snoop_filter.hitMultiSnoops            0                       # Number of snoops hitting in the snoop filter with multiple (>1) holders of the requested data. (Count)
system.workload.inst.arm                            0                       # number of arm instructions executed (Count)
system.workload.inst.quiesce                        0                       # number of quiesce instructions executed (Count)

---------- End Simulation Statistics   ----------
