
---------- Begin Simulation Statistics ----------
simSeconds                                   0.154288                       # Number of seconds simulated (Second)
simTicks                                 154288475152                       # Number of ticks simulated (Tick)
finalTick                                154288475152                       # Number of ticks from beginning of simulation (restored from checkpoints and never reset) (Tick)
simFreq                                  1000000000000                       # The number of ticks per simulated second ((Tick/Second))
hostSeconds                                   1700.71                       # Real time elapsed on the host (Second)
hostTickRate                                 90719875                       # The number of ticks simulated per host second (ticks/s) ((Tick/Second))
hostMemory                                    8554624                       # Number of bytes of host memory used (Byte)
simInsts                                    314287606                       # Number of instructions simulated (Count)
simOps                                      402599236                       # Number of ops (including micro ops) simulated (Count)
hostInstRate                                   184798                       # Simulator instruction rate (inst/s) ((Count/Second))
hostOpRate                                     236724                       # Simulator op (including micro ops) rate (op/s) ((Count/Second))
system.clk_domain.clock                           476                       # Clock period in ticks (Tick)
system.clk_domain.voltage_domain.voltage            1                       # Voltage in Volts (Volt)
system.cpu.numCycles                        324135453                       # Number of cpu cycles simulated (Cycle)
system.cpu.cpi                               1.030859                       # CPI: cycles per instruction (core level) ((Cycle/Count))
system.cpu.ipc                               0.970065                       # IPC: instructions per cycle (core level) ((Count/Cycle))
system.cpu.numWorkItemsStarted                      0                       # Number of work items this cpu started (Count)
system.cpu.numWorkItemsCompleted                    0                       # Number of work items this cpu completed (Count)
system.cpu.instsAdded                       427220283                       # Number of instructions added to the IQ (excludes non-spec) (Count)
system.cpu.nonSpecInstsAdded                    10066                       # Number of non-speculative instructions added to the IQ (Count)
system.cpu.instsIssued                      422988538                       # Number of instructions issued (Count)
system.cpu.squashedInstsIssued                  93449                       # Number of squashed instructions issued (Count)
system.cpu.squashedInstsExamined             24631112                       # Number of squashed instructions iterated over during squash; mainly for profiling (Count)
system.cpu.squashedOperandsExamined          16391698                       # Number of squashed operands that are examined and possibly removed from graph (Count)
system.cpu.squashedNonSpecRemoved                2471                       # Number of squashed non-spec instructions that were removed (Count)
system.cpu.numIssuedDist::samples           316524911                       # Number of insts issued each cycle (Count)
system.cpu.numIssuedDist::mean               1.336351                       # Number of insts issued each cycle (Count)
system.cpu.numIssuedDist::stdev              1.290515                       # Number of insts issued each cycle (Count)
system.cpu.numIssuedDist::underflows                0      0.00%      0.00% # Number of insts issued each cycle (Count)
system.cpu.numIssuedDist::0                 112806839     35.64%     35.64% # Number of insts issued each cycle (Count)
system.cpu.numIssuedDist::1                  65158723     20.59%     56.22% # Number of insts issued each cycle (Count)
system.cpu.numIssuedDist::2                  85318993     26.95%     83.18% # Number of insts issued each cycle (Count)
system.cpu.numIssuedDist::3                  32232856     10.18%     93.36% # Number of insts issued each cycle (Count)
system.cpu.numIssuedDist::4                  15273479      4.83%     98.19% # Number of insts issued each cycle (Count)
system.cpu.numIssuedDist::5                   5066079      1.60%     99.79% # Number of insts issued each cycle (Count)
system.cpu.numIssuedDist::6                    611597      0.19%     99.98% # Number of insts issued each cycle (Count)
system.cpu.numIssuedDist::7                     51392      0.02%    100.00% # Number of insts issued each cycle (Count)
system.cpu.numIssuedDist::8                      4953      0.00%    100.00% # Number of insts issued each cycle (Count)
system.cpu.numIssuedDist::overflows                 0      0.00%    100.00% # Number of insts issued each cycle (Count)
system.cpu.numIssuedDist::min_value                 0                       # Number of insts issued each cycle (Count)
system.cpu.numIssuedDist::max_value                 8                       # Number of insts issued each cycle (Count)
system.cpu.numIssuedDist::total             316524911                       # Number of insts issued each cycle (Count)
system.cpu.statFuBusy::No_OpClass                   0      0.00%      0.00% # attempts to use FU when none available (Count)
system.cpu.statFuBusy::IntAlu                  135343      0.51%      0.51% # attempts to use FU when none available (Count)
system.cpu.statFuBusy::IntMult                  53759      0.20%      0.71% # attempts to use FU when none available (Count)
system.cpu.statFuBusy::IntDiv                     672      0.00%      0.71% # attempts to use FU when none available (Count)
system.cpu.statFuBusy::FloatAdd                     0      0.00%      0.71% # attempts to use FU when none available (Count)
system.cpu.statFuBusy::FloatCmp                     6      0.00%      0.71% # attempts to use FU when none available (Count)
system.cpu.statFuBusy::FloatCvt                   248      0.00%      0.72% # attempts to use FU when none available (Count)
system.cpu.statFuBusy::FloatMult                    0      0.00%      0.72% # attempts to use FU when none available (Count)
system.cpu.statFuBusy::FloatMultAcc                 0      0.00%      0.72% # attempts to use FU when none available (Count)
system.cpu.statFuBusy::FloatDiv                     0      0.00%      0.72% # attempts to use FU when none available (Count)
system.cpu.statFuBusy::FloatMisc                  260      0.00%      0.72% # attempts to use FU when none available (Count)
system.cpu.statFuBusy::FloatSqrt                    0      0.00%      0.72% # attempts to use FU when none available (Count)
system.cpu.statFuBusy::SimdAdd                2897544     10.91%     11.63% # attempts to use FU when none available (Count)
system.cpu.statFuBusy::SimdAddAcc              846318      3.19%     14.81% # attempts to use FU when none available (Count)
system.cpu.statFuBusy::SimdAlu                6041528     22.75%     37.56% # attempts to use FU when none available (Count)
system.cpu.statFuBusy::SimdCmp                 252653      0.95%     38.51% # attempts to use FU when none available (Count)
system.cpu.statFuBusy::SimdCvt                      1      0.00%     38.51% # attempts to use FU when none available (Count)
system.cpu.statFuBusy::SimdMisc                712187      2.68%     41.19% # attempts to use FU when none available (Count)
system.cpu.statFuBusy::SimdMult                 19197      0.07%     41.26% # attempts to use FU when none available (Count)
system.cpu.statFuBusy::SimdMultAcc              90473      0.34%     41.60% # attempts to use FU when none available (Count)
system.cpu.statFuBusy::SimdMatMultAcc               0      0.00%     41.60% # attempts to use FU when none available (Count)
system.cpu.statFuBusy::SimdShift              1080950      4.07%     45.67% # attempts to use FU when none available (Count)
system.cpu.statFuBusy::SimdShiftAcc                 0      0.00%     45.67% # attempts to use FU when none available (Count)
system.cpu.statFuBusy::SimdDiv                      0      0.00%     45.67% # attempts to use FU when none available (Count)
system.cpu.statFuBusy::SimdSqrt                     0      0.00%     45.67% # attempts to use FU when none available (Count)
system.cpu.statFuBusy::SimdFloatAdd                 0      0.00%     45.67% # attempts to use FU when none available (Count)
system.cpu.statFuBusy::SimdFloatAlu                 0      0.00%     45.67% # attempts to use FU when none available (Count)
system.cpu.statFuBusy::SimdFloatCmp                 0      0.00%     45.67% # attempts to use FU when none available (Count)
system.cpu.statFuBusy::SimdFloatCvt                 0      0.00%     45.67% # attempts to use FU when none available (Count)
system.cpu.statFuBusy::SimdFloatDiv                 0      0.00%     45.67% # attempts to use FU when none available (Count)
system.cpu.statFuBusy::SimdFloatMisc                0      0.00%     45.67% # attempts to use FU when none available (Count)
system.cpu.statFuBusy::SimdFloatMult                0      0.00%     45.67% # attempts to use FU when none available (Count)
system.cpu.statFuBusy::SimdFloatMultAcc             0      0.00%     45.67% # attempts to use FU when none available (Count)
system.cpu.statFuBusy::SimdFloatMatMultAcc            0      0.00%     45.67% # attempts to use FU when none available (Count)
system.cpu.statFuBusy::SimdFloatSqrt                0      0.00%     45.67% # attempts to use FU when none available (Count)
system.cpu.statFuBusy::SimdReduceAdd                0      0.00%     45.67% # attempts to use FU when none available (Count)
system.cpu.statFuBusy::SimdReduceAlu                0      0.00%     45.67% # attempts to use FU when none available (Count)
system.cpu.statFuBusy::SimdReduceCmp                0      0.00%     45.67% # attempts to use FU when none available (Count)
system.cpu.statFuBusy::SimdFloatReduceAdd            0      0.00%     45.67% # attempts to use FU when none available (Count)
system.cpu.statFuBusy::SimdFloatReduceCmp            0      0.00%     45.67% # attempts to use FU when none available (Count)
system.cpu.statFuBusy::SimdAes                      0      0.00%     45.67% # attempts to use FU when none available (Count)
system.cpu.statFuBusy::SimdAesMix                   0      0.00%     45.67% # attempts to use FU when none available (Count)
system.cpu.statFuBusy::SimdSha1Hash                 0      0.00%     45.67% # attempts to use FU when none available (Count)
system.cpu.statFuBusy::SimdSha1Hash2                0      0.00%     45.67% # attempts to use FU when none available (Count)
system.cpu.statFuBusy::SimdSha256Hash               0      0.00%     45.67% # attempts to use FU when none available (Count)
system.cpu.statFuBusy::SimdSha256Hash2              0      0.00%     45.67% # attempts to use FU when none available (Count)
system.cpu.statFuBusy::SimdShaSigma2                0      0.00%     45.67% # attempts to use FU when none available (Count)
system.cpu.statFuBusy::SimdShaSigma3                0      0.00%     45.67% # attempts to use FU when none available (Count)
system.cpu.statFuBusy::SimdPredAlu                  0      0.00%     45.67% # attempts to use FU when none available (Count)
system.cpu.statFuBusy::Matrix                       0      0.00%     45.67% # attempts to use FU when none available (Count)
system.cpu.statFuBusy::MatrixMov                    0      0.00%     45.67% # attempts to use FU when none available (Count)
system.cpu.statFuBusy::MatrixOP                     0      0.00%     45.67% # attempts to use FU when none available (Count)
system.cpu.statFuBusy::MemRead                 552224      2.08%     47.75% # attempts to use FU when none available (Count)
system.cpu.statFuBusy::MemWrite              13876820     52.25%    100.00% # attempts to use FU when none available (Count)
system.cpu.statFuBusy::FloatMemRead                 0      0.00%    100.00% # attempts to use FU when none available (Count)
system.cpu.statFuBusy::FloatMemWrite                0      0.00%    100.00% # attempts to use FU when none available (Count)
system.cpu.statFuBusy::IprAccess                    0      0.00%    100.00% # attempts to use FU when none available (Count)
system.cpu.statFuBusy::InstPrefetch                 0      0.00%    100.00% # attempts to use FU when none available (Count)
system.cpu.statFuBusy::VectorUnitStrideLoad            0      0.00%    100.00% # attempts to use FU when none available (Count)
system.cpu.statFuBusy::VectorUnitStrideStore            0      0.00%    100.00% # attempts to use FU when none available (Count)
system.cpu.statFuBusy::VectorUnitStrideMaskLoad            0      0.00%    100.00% # attempts to use FU when none available (Count)
system.cpu.statFuBusy::VectorUnitStrideMaskStore            0      0.00%    100.00% # attempts to use FU when none available (Count)
system.cpu.statFuBusy::VectorStridedLoad            0      0.00%    100.00% # attempts to use FU when none available (Count)
system.cpu.statFuBusy::VectorStridedStore            0      0.00%    100.00% # attempts to use FU when none available (Count)
system.cpu.statFuBusy::VectorIndexedLoad            0      0.00%    100.00% # attempts to use FU when none available (Count)
system.cpu.statFuBusy::VectorIndexedStore            0      0.00%    100.00% # attempts to use FU when none available (Count)
system.cpu.statFuBusy::VectorUnitStrideFaultOnlyFirstLoad            0      0.00%    100.00% # attempts to use FU when none available (Count)
system.cpu.statFuBusy::VectorWholeRegisterLoad            0      0.00%    100.00% # attempts to use FU when none available (Count)
system.cpu.statFuBusy::VectorWholeRegisterStore            0      0.00%    100.00% # attempts to use FU when none available (Count)
system.cpu.statFuBusy::VectorIntegerArith            0      0.00%    100.00% # attempts to use FU when none available (Count)
system.cpu.statFuBusy::VectorFloatArith             0      0.00%    100.00% # attempts to use FU when none available (Count)
system.cpu.statFuBusy::VectorFloatConvert            0      0.00%    100.00% # attempts to use FU when none available (Count)
system.cpu.statFuBusy::VectorIntegerReduce            0      0.00%    100.00% # attempts to use FU when none available (Count)
system.cpu.statFuBusy::VectorFloatReduce            0      0.00%    100.00% # attempts to use FU when none available (Count)
system.cpu.statFuBusy::VectorMisc                   0      0.00%    100.00% # attempts to use FU when none available (Count)
system.cpu.statFuBusy::VectorIntegerExtension            0      0.00%    100.00% # attempts to use FU when none available (Count)
system.cpu.statFuBusy::VectorConfig                 0      0.00%    100.00% # attempts to use FU when none available (Count)
system.cpu.statIssuedInstType_0::No_OpClass     17596039      4.16%      4.16% # Number of instructions issued per FU type, per thread (Count)
system.cpu.statIssuedInstType_0::IntAlu     172072966     40.68%     44.84% # Number of instructions issued per FU type, per thread (Count)
system.cpu.statIssuedInstType_0::IntMult       490181      0.12%     44.96% # Number of instructions issued per FU type, per thread (Count)
system.cpu.statIssuedInstType_0::IntDiv         22964      0.01%     44.96% # Number of instructions issued per FU type, per thread (Count)
system.cpu.statIssuedInstType_0::FloatAdd         4173      0.00%     44.96% # Number of instructions issued per FU type, per thread (Count)
system.cpu.statIssuedInstType_0::FloatCmp         1096      0.00%     44.96% # Number of instructions issued per FU type, per thread (Count)
system.cpu.statIssuedInstType_0::FloatCvt         9026      0.00%     44.96% # Number of instructions issued per FU type, per thread (Count)
system.cpu.statIssuedInstType_0::FloatMult         3142      0.00%     44.97% # Number of instructions issued per FU type, per thread (Count)
system.cpu.statIssuedInstType_0::FloatMultAcc         1814      0.00%     44.97% # Number of instructions issued per FU type, per thread (Count)
system.cpu.statIssuedInstType_0::FloatDiv         3159      0.00%     44.97% # Number of instructions issued per FU type, per thread (Count)
system.cpu.statIssuedInstType_0::FloatMisc       260888      0.06%     45.03% # Number of instructions issued per FU type, per thread (Count)
system.cpu.statIssuedInstType_0::FloatSqrt            0      0.00%     45.03% # Number of instructions issued per FU type, per thread (Count)
system.cpu.statIssuedInstType_0::SimdAdd     48892690     11.56%     56.59% # Number of instructions issued per FU type, per thread (Count)
system.cpu.statIssuedInstType_0::SimdAddAcc      8769994      2.07%     58.66% # Number of instructions issued per FU type, per thread (Count)
system.cpu.statIssuedInstType_0::SimdAlu     24690412      5.84%     64.50% # Number of instructions issued per FU type, per thread (Count)
system.cpu.statIssuedInstType_0::SimdCmp      3617898      0.86%     65.35% # Number of instructions issued per FU type, per thread (Count)
system.cpu.statIssuedInstType_0::SimdCvt         3450      0.00%     65.35% # Number of instructions issued per FU type, per thread (Count)
system.cpu.statIssuedInstType_0::SimdMisc      7082852      1.67%     67.03% # Number of instructions issued per FU type, per thread (Count)
system.cpu.statIssuedInstType_0::SimdMult      9139350      2.16%     69.19% # Number of instructions issued per FU type, per thread (Count)
system.cpu.statIssuedInstType_0::SimdMultAcc      5759672      1.36%     70.55% # Number of instructions issued per FU type, per thread (Count)
system.cpu.statIssuedInstType_0::SimdMatMultAcc            0      0.00%     70.55% # Number of instructions issued per FU type, per thread (Count)
system.cpu.statIssuedInstType_0::SimdShift     18075297      4.27%     74.82% # Number of instructions issued per FU type, per thread (Count)
system.cpu.statIssuedInstType_0::SimdShiftAcc            0      0.00%     74.82% # Number of instructions issued per FU type, per thread (Count)
system.cpu.statIssuedInstType_0::SimdDiv            0      0.00%     74.82% # Number of instructions issued per FU type, per thread (Count)
system.cpu.statIssuedInstType_0::SimdSqrt            0      0.00%     74.82% # Number of instructions issued per FU type, per thread (Count)
system.cpu.statIssuedInstType_0::SimdFloatAdd            0      0.00%     74.82% # Number of instructions issued per FU type, per thread (Count)
system.cpu.statIssuedInstType_0::SimdFloatAlu            0      0.00%     74.82% # Number of instructions issued per FU type, per thread (Count)
system.cpu.statIssuedInstType_0::SimdFloatCmp            0      0.00%     74.82% # Number of instructions issued per FU type, per thread (Count)
system.cpu.statIssuedInstType_0::SimdFloatCvt            0      0.00%     74.82% # Number of instructions issued per FU type, per thread (Count)
system.cpu.statIssuedInstType_0::SimdFloatDiv            0      0.00%     74.82% # Number of instructions issued per FU type, per thread (Count)
system.cpu.statIssuedInstType_0::SimdFloatMisc            0      0.00%     74.82% # Number of instructions issued per FU type, per thread (Count)
system.cpu.statIssuedInstType_0::SimdFloatMult            0      0.00%     74.82% # Number of instructions issued per FU type, per thread (Count)
system.cpu.statIssuedInstType_0::SimdFloatMultAcc            0      0.00%     74.82% # Number of instructions issued per FU type, per thread (Count)
system.cpu.statIssuedInstType_0::SimdFloatMatMultAcc            0      0.00%     74.82% # Number of instructions issued per FU type, per thread (Count)
system.cpu.statIssuedInstType_0::SimdFloatSqrt            0      0.00%     74.82% # Number of instructions issued per FU type, per thread (Count)
system.cpu.statIssuedInstType_0::SimdReduceAdd            0      0.00%     74.82% # Number of instructions issued per FU type, per thread (Count)
system.cpu.statIssuedInstType_0::SimdReduceAlu            0      0.00%     74.82% # Number of instructions issued per FU type, per thread (Count)
system.cpu.statIssuedInstType_0::SimdReduceCmp            0      0.00%     74.82% # Number of instructions issued per FU type, per thread (Count)
system.cpu.statIssuedInstType_0::SimdFloatReduceAdd            0      0.00%     74.82% # Number of instructions issued per FU type, per thread (Count)
system.cpu.statIssuedInstType_0::SimdFloatReduceCmp            0      0.00%     74.82% # Number of instructions issued per FU type, per thread (Count)
system.cpu.statIssuedInstType_0::SimdAes            0      0.00%     74.82% # Number of instructions issued per FU type, per thread (Count)
system.cpu.statIssuedInstType_0::SimdAesMix            0      0.00%     74.82% # Number of instructions issued per FU type, per thread (Count)
system.cpu.statIssuedInstType_0::SimdSha1Hash            0      0.00%     74.82% # Number of instructions issued per FU type, per thread (Count)
system.cpu.statIssuedInstType_0::SimdSha1Hash2            0      0.00%     74.82% # Number of instructions issued per FU type, per thread (Count)
system.cpu.statIssuedInstType_0::SimdSha256Hash            0      0.00%     74.82% # Number of instructions issued per FU type, per thread (Count)
system.cpu.statIssuedInstType_0::SimdSha256Hash2            0      0.00%     74.82% # Number of instructions issued per FU type, per thread (Count)
system.cpu.statIssuedInstType_0::SimdShaSigma2            0      0.00%     74.82% # Number of instructions issued per FU type, per thread (Count)
system.cpu.statIssuedInstType_0::SimdShaSigma3            0      0.00%     74.82% # Number of instructions issued per FU type, per thread (Count)
system.cpu.statIssuedInstType_0::SimdPredAlu            0      0.00%     74.82% # Number of instructions issued per FU type, per thread (Count)
system.cpu.statIssuedInstType_0::Matrix             0      0.00%     74.82% # Number of instructions issued per FU type, per thread (Count)
system.cpu.statIssuedInstType_0::MatrixMov            0      0.00%     74.82% # Number of instructions issued per FU type, per thread (Count)
system.cpu.statIssuedInstType_0::MatrixOP            0      0.00%     74.82% # Number of instructions issued per FU type, per thread (Count)
system.cpu.statIssuedInstType_0::MemRead     68890952     16.29%     91.11% # Number of instructions issued per FU type, per thread (Count)
system.cpu.statIssuedInstType_0::MemWrite     37600523      8.89%    100.00% # Number of instructions issued per FU type, per thread (Count)
system.cpu.statIssuedInstType_0::FloatMemRead            0      0.00%    100.00% # Number of instructions issued per FU type, per thread (Count)
system.cpu.statIssuedInstType_0::FloatMemWrite            0      0.00%    100.00% # Number of instructions issued per FU type, per thread (Count)
system.cpu.statIssuedInstType_0::IprAccess            0      0.00%    100.00% # Number of instructions issued per FU type, per thread (Count)
system.cpu.statIssuedInstType_0::InstPrefetch            0      0.00%    100.00% # Number of instructions issued per FU type, per thread (Count)
system.cpu.statIssuedInstType_0::VectorUnitStrideLoad            0      0.00%    100.00% # Number of instructions issued per FU type, per thread (Count)
system.cpu.statIssuedInstType_0::VectorUnitStrideStore            0      0.00%    100.00% # Number of instructions issued per FU type, per thread (Count)
system.cpu.statIssuedInstType_0::VectorUnitStrideMaskLoad            0      0.00%    100.00% # Number of instructions issued per FU type, per thread (Count)
system.cpu.statIssuedInstType_0::VectorUnitStrideMaskStore            0      0.00%    100.00% # Number of instructions issued per FU type, per thread (Count)
system.cpu.statIssuedInstType_0::VectorStridedLoad            0      0.00%    100.00% # Number of instructions issued per FU type, per thread (Count)
system.cpu.statIssuedInstType_0::VectorStridedStore            0      0.00%    100.00% # Number of instructions issued per FU type, per thread (Count)
system.cpu.statIssuedInstType_0::VectorIndexedLoad            0      0.00%    100.00% # Number of instructions issued per FU type, per thread (Count)
system.cpu.statIssuedInstType_0::VectorIndexedStore            0      0.00%    100.00% # Number of instructions issued per FU type, per thread (Count)
system.cpu.statIssuedInstType_0::VectorUnitStrideFaultOnlyFirstLoad            0      0.00%    100.00% # Number of instructions issued per FU type, per thread (Count)
system.cpu.statIssuedInstType_0::VectorWholeRegisterLoad            0      0.00%    100.00% # Number of instructions issued per FU type, per thread (Count)
system.cpu.statIssuedInstType_0::VectorWholeRegisterStore            0      0.00%    100.00% # Number of instructions issued per FU type, per thread (Count)
system.cpu.statIssuedInstType_0::VectorIntegerArith            0      0.00%    100.00% # Number of instructions issued per FU type, per thread (Count)
system.cpu.statIssuedInstType_0::VectorFloatArith            0      0.00%    100.00% # Number of instructions issued per FU type, per thread (Count)
system.cpu.statIssuedInstType_0::VectorFloatConvert            0      0.00%    100.00% # Number of instructions issued per FU type, per thread (Count)
system.cpu.statIssuedInstType_0::VectorIntegerReduce            0      0.00%    100.00% # Number of instructions issued per FU type, per thread (Count)
system.cpu.statIssuedInstType_0::VectorFloatReduce            0      0.00%    100.00% # Number of instructions issued per FU type, per thread (Count)
system.cpu.statIssuedInstType_0::VectorMisc            0      0.00%    100.00% # Number of instructions issued per FU type, per thread (Count)
system.cpu.statIssuedInstType_0::VectorIntegerExtension            0      0.00%    100.00% # Number of instructions issued per FU type, per thread (Count)
system.cpu.statIssuedInstType_0::VectorConfig            0      0.00%    100.00% # Number of instructions issued per FU type, per thread (Count)
system.cpu.statIssuedInstType_0::total      422988538                       # Number of instructions issued per FU type, per thread (Count)
system.cpu.issueRate                         1.304975                       # Inst issue rate ((Count/Cycle))
system.cpu.fuBusy                            26560183                       # FU busy when requested (Count)
system.cpu.fuBusyRate                        0.062792                       # FU busy rate (busy events/executed inst) ((Count/Count))
system.cpu.intInstQueueReads                811387425                       # Number of integer instruction queue reads (Count)
system.cpu.intInstQueueWrites               268336116                       # Number of integer instruction queue writes (Count)
system.cpu.intInstQueueWakeupAccesses       233295065                       # Number of integer instruction queue wakeup accesses (Count)
system.cpu.fpInstQueueReads                         0                       # Number of floating instruction queue reads (Count)
system.cpu.fpInstQueueWrites                        0                       # Number of floating instruction queue writes (Count)
system.cpu.fpInstQueueWakeupAccesses                0                       # Number of floating instruction queue wakeup accesses (Count)
system.cpu.vecInstQueueReads                377768194                       # Number of vector instruction queue reads (Count)
system.cpu.vecInstQueueWrites               183562108                       # Number of vector instruction queue writes (Count)
system.cpu.vecInstQueueWakeupAccesses       181331214                       # Number of vector instruction queue wakeup accesses (Count)
system.cpu.intAluAccesses                   253683824                       # Number of integer alu accesses (Count)
system.cpu.fpAluAccesses                            0                       # Number of floating point alu accesses (Count)
system.cpu.vecAluAccesses                   178268858                       # Number of vector alu accesses (Count)
system.cpu.numSquashedInsts                   4724433                       # Number of squashed instructions skipped in execute (Count)
system.cpu.numSwp                                   0                       # Number of swp insts executed (Count)
system.cpu.timesIdled                          339286                       # Number of times that the entire CPU went into an idle state and unscheduled itself (Count)
system.cpu.idleCycles                         7610542                       # Total number of cycles that the CPU has spent unscheduled due to idling (Cycle)
system.cpu.MemDepUnit__0.insertedLoads       68001676                       # Number of loads inserted to the mem dependence unit. (Count)
system.cpu.MemDepUnit__0.insertedStores      38303059                       # Number of stores inserted to the mem dependence unit. (Count)
system.cpu.MemDepUnit__0.conflictingLoads      1598355                       # Number of conflicting loads. (Count)
system.cpu.MemDepUnit__0.conflictingStores      3517660                       # Number of conflicting stores. (Count)
system.cpu.MemDepUnit__1.insertedLoads              0                       # Number of loads inserted to the mem dependence unit. (Count)
system.cpu.MemDepUnit__1.insertedStores             0                       # Number of stores inserted to the mem dependence unit. (Count)
system.cpu.MemDepUnit__1.conflictingLoads            0                       # Number of conflicting loads. (Count)
system.cpu.MemDepUnit__1.conflictingStores            0                       # Number of conflicting stores. (Count)
system.cpu.MemDepUnit__2.insertedLoads              0                       # Number of loads inserted to the mem dependence unit. (Count)
system.cpu.MemDepUnit__2.insertedStores             0                       # Number of stores inserted to the mem dependence unit. (Count)
system.cpu.MemDepUnit__2.conflictingLoads            0                       # Number of conflicting loads. (Count)
system.cpu.MemDepUnit__2.conflictingStores            0                       # Number of conflicting stores. (Count)
system.cpu.MemDepUnit__3.insertedLoads              0                       # Number of loads inserted to the mem dependence unit. (Count)
system.cpu.MemDepUnit__3.insertedStores             0                       # Number of stores inserted to the mem dependence unit. (Count)
system.cpu.MemDepUnit__3.conflictingLoads            0                       # Number of conflicting loads. (Count)
system.cpu.MemDepUnit__3.conflictingStores            0                       # Number of conflicting stores. (Count)
system.cpu.branchPred.lookups                35137007                       # Number of BP lookups (Count)
system.cpu.branchPred.condPredicted          26049096                       # Number of conditional branches predicted (Count)
system.cpu.branchPred.condIncorrect           2193173                       # Number of conditional branches incorrect (Count)
system.cpu.branchPred.BTBLookups             16816535                       # Number of BTB lookups (Count)
system.cpu.branchPred.BTBUpdates               930632                       # Number of BTB updates (Count)
system.cpu.branchPred.BTBHits                16489156                       # Number of BTB hits (Count)
system.cpu.branchPred.BTBHitRatio            0.980532                       # BTB Hit Ratio (Ratio)
system.cpu.branchPred.RASUsed                 2813608                       # Number of times the RAS was used to get a target. (Count)
system.cpu.branchPred.RASIncorrect               1104                       # Number of incorrect RAS predictions. (Count)
system.cpu.branchPred.indirectLookups         2541150                       # Number of indirect predictor lookups. (Count)
system.cpu.branchPred.indirectHits            1704682                       # Number of indirect target hits. (Count)
system.cpu.branchPred.indirectMisses           836468                       # Number of indirect misses. (Count)
system.cpu.branchPred.indirectMispredicted       405102                       # Number of mispredicted indirect branches. (Count)
system.cpu.commit.commitSquashedInsts        22759590                       # The number of squashed insts skipped by commit (Count)
system.cpu.commit.commitNonSpecStalls            7595                       # The number of times commit has been forced to stall to communicate backwards (Count)
system.cpu.commit.branchMispredicts           2091358                       # The number of times a branch was mispredicted (Count)
system.cpu.commit.numCommittedDist::samples    312700547                       # Number of insts commited each cycle (Count)
system.cpu.commit.numCommittedDist::mean     1.287954                       # Number of insts commited each cycle (Count)
system.cpu.commit.numCommittedDist::stdev     1.544853                       # Number of insts commited each cycle (Count)
system.cpu.commit.numCommittedDist::underflows            0      0.00%      0.00% # Number of insts commited each cycle (Count)
system.cpu.commit.numCommittedDist::0       151983014     48.60%     48.60% # Number of insts commited each cycle (Count)
system.cpu.commit.numCommittedDist::1        51832753     16.58%     65.18% # Number of insts commited each cycle (Count)
system.cpu.commit.numCommittedDist::2        31702196     10.14%     75.32% # Number of insts commited each cycle (Count)
system.cpu.commit.numCommittedDist::3        21223527      6.79%     82.10% # Number of insts commited each cycle (Count)
system.cpu.commit.numCommittedDist::4        55959057     17.90%    100.00% # Number of insts commited each cycle (Count)
system.cpu.commit.numCommittedDist::overflows            0      0.00%    100.00% # Number of insts commited each cycle (Count)
system.cpu.commit.numCommittedDist::min_value            0                       # Number of insts commited each cycle (Count)
system.cpu.commit.numCommittedDist::max_value            4                       # Number of insts commited each cycle (Count)
system.cpu.commit.numCommittedDist::total    312700547                       # Number of insts commited each cycle (Count)
system.cpu.commit.amos                              0                       # Number of atomic instructions committed (Count)
system.cpu.commit.membars                        6105                       # Number of memory barriers committed (Count)
system.cpu.commit.functionCalls               2457854                       # Number of function calls committed. (Count)
system.cpu.commit.committedInstType_0::No_OpClass     17413051      4.32%      4.32% # Class of committed instruction (Count)
system.cpu.commit.committedInstType_0::IntAlu    159698096     39.65%     43.98% # Class of committed instruction (Count)
system.cpu.commit.committedInstType_0::IntMult       475652      0.12%     44.09% # Class of committed instruction (Count)
system.cpu.commit.committedInstType_0::IntDiv        22208      0.01%     44.10% # Class of committed instruction (Count)
system.cpu.commit.committedInstType_0::FloatAdd         4167      0.00%     44.10% # Class of committed instruction (Count)
system.cpu.commit.committedInstType_0::FloatCmp         1090      0.00%     44.10% # Class of committed instruction (Count)
system.cpu.commit.committedInstType_0::FloatCvt         8998      0.00%     44.10% # Class of committed instruction (Count)
system.cpu.commit.committedInstType_0::FloatMult         3107      0.00%     44.10% # Class of committed instruction (Count)
system.cpu.commit.committedInstType_0::FloatMultAcc         1814      0.00%     44.10% # Class of committed instruction (Count)
system.cpu.commit.committedInstType_0::FloatDiv         3126      0.00%     44.11% # Class of committed instruction (Count)
system.cpu.commit.committedInstType_0::FloatMisc       260648      0.06%     44.17% # Class of committed instruction (Count)
system.cpu.commit.committedInstType_0::FloatSqrt            0      0.00%     44.17% # Class of committed instruction (Count)
system.cpu.commit.committedInstType_0::SimdAdd     48807529     12.12%     56.29% # Class of committed instruction (Count)
system.cpu.commit.committedInstType_0::SimdAddAcc      8761360      2.18%     58.46% # Class of committed instruction (Count)
system.cpu.commit.committedInstType_0::SimdAlu     24630307      6.12%     64.58% # Class of committed instruction (Count)
system.cpu.commit.committedInstType_0::SimdCmp      3594502      0.89%     65.47% # Class of committed instruction (Count)
system.cpu.commit.committedInstType_0::SimdCvt         3379      0.00%     65.47% # Class of committed instruction (Count)
system.cpu.commit.committedInstType_0::SimdMisc      7058345      1.75%     67.23% # Class of committed instruction (Count)
system.cpu.commit.committedInstType_0::SimdMult      9139113      2.27%     69.49% # Class of committed instruction (Count)
system.cpu.commit.committedInstType_0::SimdMultAcc      5759629      1.43%     70.92% # Class of committed instruction (Count)
system.cpu.commit.committedInstType_0::SimdMatMultAcc            0      0.00%     70.92% # Class of committed instruction (Count)
system.cpu.commit.committedInstType_0::SimdShift     18071790      4.49%     75.41% # Class of committed instruction (Count)
system.cpu.commit.committedInstType_0::SimdShiftAcc            0      0.00%     75.41% # Class of committed instruction (Count)
system.cpu.commit.committedInstType_0::SimdDiv            0      0.00%     75.41% # Class of committed instruction (Count)
system.cpu.commit.committedInstType_0::SimdSqrt            0      0.00%     75.41% # Class of committed instruction (Count)
system.cpu.commit.committedInstType_0::SimdFloatAdd            0      0.00%     75.41% # Class of committed instruction (Count)
system.cpu.commit.committedInstType_0::SimdFloatAlu            0      0.00%     75.41% # Class of committed instruction (Count)
system.cpu.commit.committedInstType_0::SimdFloatCmp            0      0.00%     75.41% # Class of committed instruction (Count)
system.cpu.commit.committedInstType_0::SimdFloatCvt            0      0.00%     75.41% # Class of committed instruction (Count)
system.cpu.commit.committedInstType_0::SimdFloatDiv            0      0.00%     75.41% # Class of committed instruction (Count)
system.cpu.commit.committedInstType_0::SimdFloatMisc            0      0.00%     75.41% # Class of committed instruction (Count)
system.cpu.commit.committedInstType_0::SimdFloatMult            0      0.00%     75.41% # Class of committed instruction (Count)
system.cpu.commit.committedInstType_0::SimdFloatMultAcc            0      0.00%     75.41% # Class of committed instruction (Count)
system.cpu.commit.committedInstType_0::SimdFloatMatMultAcc            0      0.00%     75.41% # Class of committed instruction (Count)
system.cpu.commit.committedInstType_0::SimdFloatSqrt            0      0.00%     75.41% # Class of committed instruction (Count)
system.cpu.commit.committedInstType_0::SimdReduceAdd            0      0.00%     75.41% # Class of committed instruction (Count)
system.cpu.commit.committedInstType_0::SimdReduceAlu            0      0.00%     75.41% # Class of committed instruction (Count)
system.cpu.commit.committedInstType_0::SimdReduceCmp            0      0.00%     75.41% # Class of committed instruction (Count)
system.cpu.commit.committedInstType_0::SimdFloatReduceAdd            0      0.00%     75.41% # Class of committed instruction (Count)
system.cpu.commit.committedInstType_0::SimdFloatReduceCmp            0      0.00%     75.41% # Class of committed instruction (Count)
system.cpu.commit.committedInstType_0::SimdAes            0      0.00%     75.41% # Class of committed instruction (Count)
system.cpu.commit.committedInstType_0::SimdAesMix            0      0.00%     75.41% # Class of committed instruction (Count)
system.cpu.commit.committedInstType_0::SimdSha1Hash            0      0.00%     75.41% # Class of committed instruction (Count)
system.cpu.commit.committedInstType_0::SimdSha1Hash2            0      0.00%     75.41% # Class of committed instruction (Count)
system.cpu.commit.committedInstType_0::SimdSha256Hash            0      0.00%     75.41% # Class of committed instruction (Count)
system.cpu.commit.committedInstType_0::SimdSha256Hash2            0      0.00%     75.41% # Class of committed instruction (Count)
system.cpu.commit.committedInstType_0::SimdShaSigma2            0      0.00%     75.41% # Class of committed instruction (Count)
system.cpu.commit.committedInstType_0::SimdShaSigma3            0      0.00%     75.41% # Class of committed instruction (Count)
system.cpu.commit.committedInstType_0::SimdPredAlu            0      0.00%     75.41% # Class of committed instruction (Count)
system.cpu.commit.committedInstType_0::Matrix            0      0.00%     75.41% # Class of committed instruction (Count)
system.cpu.commit.committedInstType_0::MatrixMov            0      0.00%     75.41% # Class of committed instruction (Count)
system.cpu.commit.committedInstType_0::MatrixOP            0      0.00%     75.41% # Class of committed instruction (Count)
system.cpu.commit.committedInstType_0::MemRead     62604528     15.54%     90.96% # Class of committed instruction (Count)
system.cpu.commit.committedInstType_0::MemWrite     36421515      9.04%    100.00% # Class of committed instruction (Count)
system.cpu.commit.committedInstType_0::FloatMemRead            0      0.00%    100.00% # Class of committed instruction (Count)
system.cpu.commit.committedInstType_0::FloatMemWrite            0      0.00%    100.00% # Class of committed instruction (Count)
system.cpu.commit.committedInstType_0::IprAccess            0      0.00%    100.00% # Class of committed instruction (Count)
system.cpu.commit.committedInstType_0::InstPrefetch            0      0.00%    100.00% # Class of committed instruction (Count)
system.cpu.commit.committedInstType_0::VectorUnitStrideLoad            0      0.00%    100.00% # Class of committed instruction (Count)
system.cpu.commit.committedInstType_0::VectorUnitStrideStore            0      0.00%    100.00% # Class of committed instruction (Count)
system.cpu.commit.committedInstType_0::VectorUnitStrideMaskLoad            0      0.00%    100.00% # Class of committed instruction (Count)
system.cpu.commit.committedInstType_0::VectorUnitStrideMaskStore            0      0.00%    100.00% # Class of committed instruction (Count)
system.cpu.commit.committedInstType_0::VectorStridedLoad            0      0.00%    100.00% # Class of committed instruction (Count)
system.cpu.commit.committedInstType_0::VectorStridedStore            0      0.00%    100.00% # Class of committed instruction (Count)
system.cpu.commit.committedInstType_0::VectorIndexedLoad            0      0.00%    100.00% # Class of committed instruction (Count)
system.cpu.commit.committedInstType_0::VectorIndexedStore            0      0.00%    100.00% # Class of committed instruction (Count)
system.cpu.commit.committedInstType_0::VectorUnitStrideFaultOnlyFirstLoad            0      0.00%    100.00% # Class of committed instruction (Count)
system.cpu.commit.committedInstType_0::VectorWholeRegisterLoad            0      0.00%    100.00% # Class of committed instruction (Count)
system.cpu.commit.committedInstType_0::VectorWholeRegisterStore            0      0.00%    100.00% # Class of committed instruction (Count)
system.cpu.commit.committedInstType_0::VectorIntegerArith            0      0.00%    100.00% # Class of committed instruction (Count)
system.cpu.commit.committedInstType_0::VectorFloatArith            0      0.00%    100.00% # Class of committed instruction (Count)
system.cpu.commit.committedInstType_0::VectorFloatConvert            0      0.00%    100.00% # Class of committed instruction (Count)
system.cpu.commit.committedInstType_0::VectorIntegerReduce            0      0.00%    100.00% # Class of committed instruction (Count)
system.cpu.commit.committedInstType_0::VectorFloatReduce            0      0.00%    100.00% # Class of committed instruction (Count)
system.cpu.commit.committedInstType_0::VectorMisc            0      0.00%    100.00% # Class of committed instruction (Count)
system.cpu.commit.committedInstType_0::VectorIntegerExtension            0      0.00%    100.00% # Class of committed instruction (Count)
system.cpu.commit.committedInstType_0::VectorConfig            0      0.00%    100.00% # Class of committed instruction (Count)
system.cpu.commit.committedInstType_0::total    402743954                       # Class of committed instruction (Count)
system.cpu.commit.commitEligibleSamples      55959057                       # number cycles where commit BW limit reached (Cycle)
system.cpu.commitStats0.numInsts            314432324                       # Number of instructions committed (thread level) (Count)
system.cpu.commitStats0.numOps              402743954                       # Number of ops (including micro ops) committed (thread level) (Count)
system.cpu.commitStats0.numInstsNotNOP      314287606                       # Number of instructions committed excluding NOPs or prefetches (Count)
system.cpu.commitStats0.numOpsNotNOP        402599236                       # Number of Ops (including micro ops) Simulated (Count)
system.cpu.commitStats0.cpi                  1.030859                       # CPI: cycles per instruction (thread level) ((Cycle/Count))
system.cpu.commitStats0.ipc                  0.970065                       # IPC: instructions per cycle (thread level) ((Count/Cycle))
system.cpu.commitStats0.numMemRefs           99026043                       # Number of memory references committed (Count)
system.cpu.commitStats0.numFpInsts                  0                       # Number of float instructions (Count)
system.cpu.commitStats0.numIntInsts         248566802                       # Number of integer instructions (Count)
system.cpu.commitStats0.numLoadInsts         62604528                       # Number of load instructions (Count)
system.cpu.commitStats0.numStoreInsts        36421515                       # Number of store instructions (Count)
system.cpu.commitStats0.numVecInsts         180905412                       # Number of vector instructions (Count)
system.cpu.commitStats0.committedInstType::No_OpClass     17413051      4.32%      4.32% # Class of committed instruction. (Count)
system.cpu.commitStats0.committedInstType::IntAlu    159698096     39.65%     43.98% # Class of committed instruction. (Count)
system.cpu.commitStats0.committedInstType::IntMult       475652      0.12%     44.09% # Class of committed instruction. (Count)
system.cpu.commitStats0.committedInstType::IntDiv        22208      0.01%     44.10% # Class of committed instruction. (Count)
system.cpu.commitStats0.committedInstType::FloatAdd         4167      0.00%     44.10% # Class of committed instruction. (Count)
system.cpu.commitStats0.committedInstType::FloatCmp         1090      0.00%     44.10% # Class of committed instruction. (Count)
system.cpu.commitStats0.committedInstType::FloatCvt         8998      0.00%     44.10% # Class of committed instruction. (Count)
system.cpu.commitStats0.committedInstType::FloatMult         3107      0.00%     44.10% # Class of committed instruction. (Count)
system.cpu.commitStats0.committedInstType::FloatMultAcc         1814      0.00%     44.10% # Class of committed instruction. (Count)
system.cpu.commitStats0.committedInstType::FloatDiv         3126      0.00%     44.11% # Class of committed instruction. (Count)
system.cpu.commitStats0.committedInstType::FloatMisc       260648      0.06%     44.17% # Class of committed instruction. (Count)
system.cpu.commitStats0.committedInstType::FloatSqrt            0      0.00%     44.17% # Class of committed instruction. (Count)
system.cpu.commitStats0.committedInstType::SimdAdd     48807529     12.12%     56.29% # Class of committed instruction. (Count)
system.cpu.commitStats0.committedInstType::SimdAddAcc      8761360      2.18%     58.46% # Class of committed instruction. (Count)
system.cpu.commitStats0.committedInstType::SimdAlu     24630307      6.12%     64.58% # Class of committed instruction. (Count)
system.cpu.commitStats0.committedInstType::SimdCmp      3594502      0.89%     65.47% # Class of committed instruction. (Count)
system.cpu.commitStats0.committedInstType::SimdCvt         3379      0.00%     65.47% # Class of committed instruction. (Count)
system.cpu.commitStats0.committedInstType::SimdMisc      7058345      1.75%     67.23% # Class of committed instruction. (Count)
system.cpu.commitStats0.committedInstType::SimdMult      9139113      2.27%     69.49% # Class of committed instruction. (Count)
system.cpu.commitStats0.committedInstType::SimdMultAcc      5759629      1.43%     70.92% # Class of committed instruction. (Count)
system.cpu.commitStats0.committedInstType::SimdMatMultAcc            0      0.00%     70.92% # Class of committed instruction. (Count)
system.cpu.commitStats0.committedInstType::SimdShift     18071790      4.49%     75.41% # Class of committed instruction. (Count)
system.cpu.commitStats0.committedInstType::SimdShiftAcc            0      0.00%     75.41% # Class of committed instruction. (Count)
system.cpu.commitStats0.committedInstType::SimdDiv            0      0.00%     75.41% # Class of committed instruction. (Count)
system.cpu.commitStats0.committedInstType::SimdSqrt            0      0.00%     75.41% # Class of committed instruction. (Count)
system.cpu.commitStats0.committedInstType::SimdFloatAdd            0      0.00%     75.41% # Class of committed instruction. (Count)
system.cpu.commitStats0.committedInstType::SimdFloatAlu            0      0.00%     75.41% # Class of committed instruction. (Count)
system.cpu.commitStats0.committedInstType::SimdFloatCmp            0      0.00%     75.41% # Class of committed instruction. (Count)
system.cpu.commitStats0.committedInstType::SimdFloatCvt            0      0.00%     75.41% # Class of committed instruction. (Count)
system.cpu.commitStats0.committedInstType::SimdFloatDiv            0      0.00%     75.41% # Class of committed instruction. (Count)
system.cpu.commitStats0.committedInstType::SimdFloatMisc            0      0.00%     75.41% # Class of committed instruction. (Count)
system.cpu.commitStats0.committedInstType::SimdFloatMult            0      0.00%     75.41% # Class of committed instruction. (Count)
system.cpu.commitStats0.committedInstType::SimdFloatMultAcc            0      0.00%     75.41% # Class of committed instruction. (Count)
system.cpu.commitStats0.committedInstType::SimdFloatMatMultAcc            0      0.00%     75.41% # Class of committed instruction. (Count)
system.cpu.commitStats0.committedInstType::SimdFloatSqrt            0      0.00%     75.41% # Class of committed instruction. (Count)
system.cpu.commitStats0.committedInstType::SimdReduceAdd            0      0.00%     75.41% # Class of committed instruction. (Count)
system.cpu.commitStats0.committedInstType::SimdReduceAlu            0      0.00%     75.41% # Class of committed instruction. (Count)
system.cpu.commitStats0.committedInstType::SimdReduceCmp            0      0.00%     75.41% # Class of committed instruction. (Count)
system.cpu.commitStats0.committedInstType::SimdFloatReduceAdd            0      0.00%     75.41% # Class of committed instruction. (Count)
system.cpu.commitStats0.committedInstType::SimdFloatReduceCmp            0      0.00%     75.41% # Class of committed instruction. (Count)
system.cpu.commitStats0.committedInstType::SimdAes            0      0.00%     75.41% # Class of committed instruction. (Count)
system.cpu.commitStats0.committedInstType::SimdAesMix            0      0.00%     75.41% # Class of committed instruction. (Count)
system.cpu.commitStats0.committedInstType::SimdSha1Hash            0      0.00%     75.41% # Class of committed instruction. (Count)
system.cpu.commitStats0.committedInstType::SimdSha1Hash2            0      0.00%     75.41% # Class of committed instruction. (Count)
system.cpu.commitStats0.committedInstType::SimdSha256Hash            0      0.00%     75.41% # Class of committed instruction. (Count)
system.cpu.commitStats0.committedInstType::SimdSha256Hash2            0      0.00%     75.41% # Class of committed instruction. (Count)
system.cpu.commitStats0.committedInstType::SimdShaSigma2            0      0.00%     75.41% # Class of committed instruction. (Count)
system.cpu.commitStats0.committedInstType::SimdShaSigma3            0      0.00%     75.41% # Class of committed instruction. (Count)
system.cpu.commitStats0.committedInstType::SimdPredAlu            0      0.00%     75.41% # Class of committed instruction. (Count)
system.cpu.commitStats0.committedInstType::Matrix            0      0.00%     75.41% # Class of committed instruction. (Count)
system.cpu.commitStats0.committedInstType::MatrixMov            0      0.00%     75.41% # Class of committed instruction. (Count)
system.cpu.commitStats0.committedInstType::MatrixOP            0      0.00%     75.41% # Class of committed instruction. (Count)
system.cpu.commitStats0.committedInstType::MemRead     62604528     15.54%     90.96% # Class of committed instruction. (Count)
system.cpu.commitStats0.committedInstType::MemWrite     36421515      9.04%    100.00% # Class of committed instruction. (Count)
system.cpu.commitStats0.committedInstType::FloatMemRead            0      0.00%    100.00% # Class of committed instruction. (Count)
system.cpu.commitStats0.committedInstType::FloatMemWrite            0      0.00%    100.00% # Class of committed instruction. (Count)
system.cpu.commitStats0.committedInstType::IprAccess            0      0.00%    100.00% # Class of committed instruction. (Count)
system.cpu.commitStats0.committedInstType::InstPrefetch            0      0.00%    100.00% # Class of committed instruction. (Count)
system.cpu.commitStats0.committedInstType::VectorUnitStrideLoad            0      0.00%    100.00% # Class of committed instruction. (Count)
system.cpu.commitStats0.committedInstType::VectorUnitStrideStore            0      0.00%    100.00% # Class of committed instruction. (Count)
system.cpu.commitStats0.committedInstType::VectorUnitStrideMaskLoad            0      0.00%    100.00% # Class of committed instruction. (Count)
system.cpu.commitStats0.committedInstType::VectorUnitStrideMaskStore            0      0.00%    100.00% # Class of committed instruction. (Count)
system.cpu.commitStats0.committedInstType::VectorStridedLoad            0      0.00%    100.00% # Class of committed instruction. (Count)
system.cpu.commitStats0.committedInstType::VectorStridedStore            0      0.00%    100.00% # Class of committed instruction. (Count)
system.cpu.commitStats0.committedInstType::VectorIndexedLoad            0      0.00%    100.00% # Class of committed instruction. (Count)
system.cpu.commitStats0.committedInstType::VectorIndexedStore            0      0.00%    100.00% # Class of committed instruction. (Count)
system.cpu.commitStats0.committedInstType::VectorUnitStrideFaultOnlyFirstLoad            0      0.00%    100.00% # Class of committed instruction. (Count)
system.cpu.commitStats0.committedInstType::VectorWholeRegisterLoad            0      0.00%    100.00% # Class of committed instruction. (Count)
system.cpu.commitStats0.committedInstType::VectorWholeRegisterStore            0      0.00%    100.00% # Class of committed instruction. (Count)
system.cpu.commitStats0.committedInstType::VectorIntegerArith            0      0.00%    100.00% # Class of committed instruction. (Count)
system.cpu.commitStats0.committedInstType::VectorFloatArith            0      0.00%    100.00% # Class of committed instruction. (Count)
system.cpu.commitStats0.committedInstType::VectorFloatConvert            0      0.00%    100.00% # Class of committed instruction. (Count)
system.cpu.commitStats0.committedInstType::VectorIntegerReduce            0      0.00%    100.00% # Class of committed instruction. (Count)
system.cpu.commitStats0.committedInstType::VectorFloatReduce            0      0.00%    100.00% # Class of committed instruction. (Count)
system.cpu.commitStats0.committedInstType::VectorMisc            0      0.00%    100.00% # Class of committed instruction. (Count)
system.cpu.commitStats0.committedInstType::VectorIntegerExtension            0      0.00%    100.00% # Class of committed instruction. (Count)
system.cpu.commitStats0.committedInstType::VectorConfig            0      0.00%    100.00% # Class of committed instruction. (Count)
system.cpu.commitStats0.committedInstType::total    402743954                       # Class of committed instruction. (Count)
system.cpu.commitStats0.committedControl::IsControl     27179324                       # Class of control type instructions committed (Count)
system.cpu.commitStats0.committedControl::IsDirectControl     22815857                       # Class of control type instructions committed (Count)
system.cpu.commitStats0.committedControl::IsIndirectControl      4363467                       # Class of control type instructions committed (Count)
system.cpu.commitStats0.committedControl::IsCondControl     20138181                       # Class of control type instructions committed (Count)
system.cpu.commitStats0.committedControl::IsUncondControl      7041143                       # Class of control type instructions committed (Count)
system.cpu.commitStats0.committedControl::IsCall      2457854                       # Class of control type instructions committed (Count)
system.cpu.commitStats0.committedControl::IsReturn      2457850                       # Class of control type instructions committed (Count)
system.cpu.dcache.demandHits::cpu.data       90597473                       # number of demand (read+write) hits (Count)
system.cpu.dcache.demandHits::total          90597473                       # number of demand (read+write) hits (Count)
system.cpu.dcache.overallHits::cpu.data      90719706                       # number of overall hits (Count)
system.cpu.dcache.overallHits::total         90719706                       # number of overall hits (Count)
system.cpu.dcache.demandMisses::cpu.data     10905041                       # number of demand (read+write) misses (Count)
system.cpu.dcache.demandMisses::total        10905041                       # number of demand (read+write) misses (Count)
system.cpu.dcache.overallMisses::cpu.data     10935885                       # number of overall misses (Count)
system.cpu.dcache.overallMisses::total       10935885                       # number of overall misses (Count)
system.cpu.dcache.demandMissLatency::cpu.data 227668254431                       # number of demand (read+write) miss ticks (Tick)
system.cpu.dcache.demandMissLatency::total 227668254431                       # number of demand (read+write) miss ticks (Tick)
system.cpu.dcache.overallMissLatency::cpu.data 227668254431                       # number of overall miss ticks (Tick)
system.cpu.dcache.overallMissLatency::total 227668254431                       # number of overall miss ticks (Tick)
system.cpu.dcache.demandAccesses::cpu.data    101502514                       # number of demand (read+write) accesses (Count)
system.cpu.dcache.demandAccesses::total     101502514                       # number of demand (read+write) accesses (Count)
system.cpu.dcache.overallAccesses::cpu.data    101655591                       # number of overall (read+write) accesses (Count)
system.cpu.dcache.overallAccesses::total    101655591                       # number of overall (read+write) accesses (Count)
system.cpu.dcache.demandMissRate::cpu.data     0.107436                       # miss rate for demand accesses (Ratio)
system.cpu.dcache.demandMissRate::total      0.107436                       # miss rate for demand accesses (Ratio)
system.cpu.dcache.overallMissRate::cpu.data     0.107578                       # miss rate for overall accesses (Ratio)
system.cpu.dcache.overallMissRate::total     0.107578                       # miss rate for overall accesses (Ratio)
system.cpu.dcache.demandAvgMissLatency::cpu.data 20877.340528                       # average overall miss latency in ticks ((Tick/Count))
system.cpu.dcache.demandAvgMissLatency::total 20877.340528                       # average overall miss latency in ticks ((Tick/Count))
system.cpu.dcache.overallAvgMissLatency::cpu.data 20818.457256                       # average overall miss latency ((Tick/Count))
system.cpu.dcache.overallAvgMissLatency::total 20818.457256                       # average overall miss latency ((Tick/Count))
system.cpu.dcache.blockedCycles::no_mshrs        93509                       # number of cycles access was blocked (Cycle)
system.cpu.dcache.blockedCycles::no_targets         8913                       # number of cycles access was blocked (Cycle)
system.cpu.dcache.blockedCauses::no_mshrs        18680                       # number of times access was blocked (Count)
system.cpu.dcache.blockedCauses::no_targets          222                       # number of times access was blocked (Count)
system.cpu.dcache.avgBlocked::no_mshrs       5.005835                       # average number of cycles each access was blocked ((Cycle/Count))
system.cpu.dcache.avgBlocked::no_targets    40.148649                       # average number of cycles each access was blocked ((Cycle/Count))
system.cpu.dcache.writebacks::writebacks      2301827                       # number of writebacks (Count)
system.cpu.dcache.writebacks::total           2301827                       # number of writebacks (Count)
system.cpu.dcache.demandMshrHits::cpu.data      7990975                       # number of demand (read+write) MSHR hits (Count)
system.cpu.dcache.demandMshrHits::total       7990975                       # number of demand (read+write) MSHR hits (Count)
system.cpu.dcache.overallMshrHits::cpu.data      7990975                       # number of overall MSHR hits (Count)
system.cpu.dcache.overallMshrHits::total      7990975                       # number of overall MSHR hits (Count)
system.cpu.dcache.demandMshrMisses::cpu.data      2914066                       # number of demand (read+write) MSHR misses (Count)
system.cpu.dcache.demandMshrMisses::total      2914066                       # number of demand (read+write) MSHR misses (Count)
system.cpu.dcache.overallMshrMisses::cpu.data      2933511                       # number of overall MSHR misses (Count)
system.cpu.dcache.overallMshrMisses::cpu.dcache.prefetcher       933729                       # number of overall MSHR misses (Count)
system.cpu.dcache.overallMshrMisses::total      3867240                       # number of overall MSHR misses (Count)
system.cpu.dcache.demandMshrMissLatency::cpu.data  58630562921                       # number of demand (read+write) MSHR miss ticks (Tick)
system.cpu.dcache.demandMshrMissLatency::total  58630562921                       # number of demand (read+write) MSHR miss ticks (Tick)
system.cpu.dcache.overallMshrMissLatency::cpu.data  59142247689                       # number of overall MSHR miss ticks (Tick)
system.cpu.dcache.overallMshrMissLatency::cpu.dcache.prefetcher  18304361019                       # number of overall MSHR miss ticks (Tick)
system.cpu.dcache.overallMshrMissLatency::total  77446608708                       # number of overall MSHR miss ticks (Tick)
system.cpu.dcache.demandMshrMissRate::cpu.data     0.028709                       # mshr miss ratio for demand accesses (Ratio)
system.cpu.dcache.demandMshrMissRate::total     0.028709                       # mshr miss ratio for demand accesses (Ratio)
system.cpu.dcache.overallMshrMissRate::cpu.data     0.028857                       # mshr miss ratio for overall accesses (Ratio)
system.cpu.dcache.overallMshrMissRate::cpu.dcache.prefetcher          inf                       # mshr miss ratio for overall accesses (Ratio)
system.cpu.dcache.overallMshrMissRate::total     0.038043                       # mshr miss ratio for overall accesses (Ratio)
system.cpu.dcache.demandAvgMshrMissLatency::cpu.data 20119.847293                       # average overall mshr miss latency ((Tick/Count))
system.cpu.dcache.demandAvgMshrMissLatency::total 20119.847293                       # average overall mshr miss latency ((Tick/Count))
system.cpu.dcache.overallAvgMshrMissLatency::cpu.data 20160.908784                       # average overall mshr miss latency ((Tick/Count))
system.cpu.dcache.overallAvgMshrMissLatency::cpu.dcache.prefetcher 19603.504892                       # average overall mshr miss latency ((Tick/Count))
system.cpu.dcache.overallAvgMshrMissLatency::total 20026.325935                       # average overall mshr miss latency ((Tick/Count))
system.cpu.dcache.replacements                3707203                       # number of replacements (Count)
system.cpu.dcache.HardPFReq.mshrMisses::cpu.dcache.prefetcher       933729                       # number of HardPFReq MSHR misses (Count)
system.cpu.dcache.HardPFReq.mshrMisses::total       933729                       # number of HardPFReq MSHR misses (Count)
system.cpu.dcache.HardPFReq.mshrMissLatency::cpu.dcache.prefetcher  18304361019                       # number of HardPFReq MSHR miss ticks (Tick)
system.cpu.dcache.HardPFReq.mshrMissLatency::total  18304361019                       # number of HardPFReq MSHR miss ticks (Tick)
system.cpu.dcache.HardPFReq.mshrMissRate::cpu.dcache.prefetcher          inf                       # mshr miss rate for HardPFReq accesses (Ratio)
system.cpu.dcache.HardPFReq.mshrMissRate::total          inf                       # mshr miss rate for HardPFReq accesses (Ratio)
system.cpu.dcache.HardPFReq.avgMshrMissLatency::cpu.dcache.prefetcher 19603.504892                       # average HardPFReq mshr miss latency ((Tick/Count))
system.cpu.dcache.HardPFReq.avgMshrMissLatency::total 19603.504892                       # average HardPFReq mshr miss latency ((Tick/Count))
system.cpu.dcache.LoadLockedReq.hits::cpu.data         7259                       # number of LoadLockedReq hits (Count)
system.cpu.dcache.LoadLockedReq.hits::total         7259                       # number of LoadLockedReq hits (Count)
system.cpu.dcache.LoadLockedReq.misses::cpu.data          792                       # number of LoadLockedReq misses (Count)
system.cpu.dcache.LoadLockedReq.misses::total          792                       # number of LoadLockedReq misses (Count)
system.cpu.dcache.LoadLockedReq.missLatency::cpu.data     19555508                       # number of LoadLockedReq miss ticks (Tick)
system.cpu.dcache.LoadLockedReq.missLatency::total     19555508                       # number of LoadLockedReq miss ticks (Tick)
system.cpu.dcache.LoadLockedReq.accesses::cpu.data         8051                       # number of LoadLockedReq accesses(hits+misses) (Count)
system.cpu.dcache.LoadLockedReq.accesses::total         8051                       # number of LoadLockedReq accesses(hits+misses) (Count)
system.cpu.dcache.LoadLockedReq.missRate::cpu.data     0.098373                       # miss rate for LoadLockedReq accesses (Ratio)
system.cpu.dcache.LoadLockedReq.missRate::total     0.098373                       # miss rate for LoadLockedReq accesses (Ratio)
system.cpu.dcache.LoadLockedReq.avgMissLatency::cpu.data 24691.297980                       # average LoadLockedReq miss latency ((Tick/Count))
system.cpu.dcache.LoadLockedReq.avgMissLatency::total 24691.297980                       # average LoadLockedReq miss latency ((Tick/Count))
system.cpu.dcache.LoadLockedReq.mshrHits::cpu.data          783                       # number of LoadLockedReq MSHR hits (Count)
system.cpu.dcache.LoadLockedReq.mshrHits::total          783                       # number of LoadLockedReq MSHR hits (Count)
system.cpu.dcache.LoadLockedReq.mshrMisses::cpu.data            9                       # number of LoadLockedReq MSHR misses (Count)
system.cpu.dcache.LoadLockedReq.mshrMisses::total            9                       # number of LoadLockedReq MSHR misses (Count)
system.cpu.dcache.LoadLockedReq.mshrMissLatency::cpu.data      1014356                       # number of LoadLockedReq MSHR miss ticks (Tick)
system.cpu.dcache.LoadLockedReq.mshrMissLatency::total      1014356                       # number of LoadLockedReq MSHR miss ticks (Tick)
system.cpu.dcache.LoadLockedReq.mshrMissRate::cpu.data     0.001118                       # mshr miss rate for LoadLockedReq accesses (Ratio)
system.cpu.dcache.LoadLockedReq.mshrMissRate::total     0.001118                       # mshr miss rate for LoadLockedReq accesses (Ratio)
system.cpu.dcache.LoadLockedReq.avgMshrMissLatency::cpu.data 112706.222222                       # average LoadLockedReq mshr miss latency ((Tick/Count))
system.cpu.dcache.LoadLockedReq.avgMshrMissLatency::total 112706.222222                       # average LoadLockedReq mshr miss latency ((Tick/Count))
system.cpu.dcache.ReadReq.hits::cpu.data     61246442                       # number of ReadReq hits (Count)
system.cpu.dcache.ReadReq.hits::total        61246442                       # number of ReadReq hits (Count)
system.cpu.dcache.ReadReq.misses::cpu.data      3750165                       # number of ReadReq misses (Count)
system.cpu.dcache.ReadReq.misses::total       3750165                       # number of ReadReq misses (Count)
system.cpu.dcache.ReadReq.missLatency::cpu.data  79634282588                       # number of ReadReq miss ticks (Tick)
system.cpu.dcache.ReadReq.missLatency::total  79634282588                       # number of ReadReq miss ticks (Tick)
system.cpu.dcache.ReadReq.accesses::cpu.data     64996607                       # number of ReadReq accesses(hits+misses) (Count)
system.cpu.dcache.ReadReq.accesses::total     64996607                       # number of ReadReq accesses(hits+misses) (Count)
system.cpu.dcache.ReadReq.missRate::cpu.data     0.057698                       # miss rate for ReadReq accesses (Ratio)
system.cpu.dcache.ReadReq.missRate::total     0.057698                       # miss rate for ReadReq accesses (Ratio)
system.cpu.dcache.ReadReq.avgMissLatency::cpu.data 21234.874356                       # average ReadReq miss latency ((Tick/Count))
system.cpu.dcache.ReadReq.avgMissLatency::total 21234.874356                       # average ReadReq miss latency ((Tick/Count))
system.cpu.dcache.ReadReq.mshrHits::cpu.data      2179562                       # number of ReadReq MSHR hits (Count)
system.cpu.dcache.ReadReq.mshrHits::total      2179562                       # number of ReadReq MSHR hits (Count)
system.cpu.dcache.ReadReq.mshrMisses::cpu.data      1570603                       # number of ReadReq MSHR misses (Count)
system.cpu.dcache.ReadReq.mshrMisses::total      1570603                       # number of ReadReq MSHR misses (Count)
system.cpu.dcache.ReadReq.mshrMissLatency::cpu.data  29980644848                       # number of ReadReq MSHR miss ticks (Tick)
system.cpu.dcache.ReadReq.mshrMissLatency::total  29980644848                       # number of ReadReq MSHR miss ticks (Tick)
system.cpu.dcache.ReadReq.mshrMissRate::cpu.data     0.024164                       # mshr miss rate for ReadReq accesses (Ratio)
system.cpu.dcache.ReadReq.mshrMissRate::total     0.024164                       # mshr miss rate for ReadReq accesses (Ratio)
system.cpu.dcache.ReadReq.avgMshrMissLatency::cpu.data 19088.620643                       # average ReadReq mshr miss latency ((Tick/Count))
system.cpu.dcache.ReadReq.avgMshrMissLatency::total 19088.620643                       # average ReadReq mshr miss latency ((Tick/Count))
system.cpu.dcache.SoftPFReq.hits::cpu.data       122233                       # number of SoftPFReq hits (Count)
system.cpu.dcache.SoftPFReq.hits::total        122233                       # number of SoftPFReq hits (Count)
system.cpu.dcache.SoftPFReq.misses::cpu.data        30844                       # number of SoftPFReq misses (Count)
system.cpu.dcache.SoftPFReq.misses::total        30844                       # number of SoftPFReq misses (Count)
system.cpu.dcache.SoftPFReq.accesses::cpu.data       153077                       # number of SoftPFReq accesses(hits+misses) (Count)
system.cpu.dcache.SoftPFReq.accesses::total       153077                       # number of SoftPFReq accesses(hits+misses) (Count)
system.cpu.dcache.SoftPFReq.missRate::cpu.data     0.201493                       # miss rate for SoftPFReq accesses (Ratio)
system.cpu.dcache.SoftPFReq.missRate::total     0.201493                       # miss rate for SoftPFReq accesses (Ratio)
system.cpu.dcache.SoftPFReq.mshrMisses::cpu.data        19445                       # number of SoftPFReq MSHR misses (Count)
system.cpu.dcache.SoftPFReq.mshrMisses::total        19445                       # number of SoftPFReq MSHR misses (Count)
system.cpu.dcache.SoftPFReq.mshrMissLatency::cpu.data    511684768                       # number of SoftPFReq MSHR miss ticks (Tick)
system.cpu.dcache.SoftPFReq.mshrMissLatency::total    511684768                       # number of SoftPFReq MSHR miss ticks (Tick)
system.cpu.dcache.SoftPFReq.mshrMissRate::cpu.data     0.127028                       # mshr miss rate for SoftPFReq accesses (Ratio)
system.cpu.dcache.SoftPFReq.mshrMissRate::total     0.127028                       # mshr miss rate for SoftPFReq accesses (Ratio)
system.cpu.dcache.SoftPFReq.avgMshrMissLatency::cpu.data 26314.464798                       # average SoftPFReq mshr miss latency ((Tick/Count))
system.cpu.dcache.SoftPFReq.avgMshrMissLatency::total 26314.464798                       # average SoftPFReq mshr miss latency ((Tick/Count))
system.cpu.dcache.StoreCondReq.hits::cpu.data         5184                       # number of StoreCondReq hits (Count)
system.cpu.dcache.StoreCondReq.hits::total         5184                       # number of StoreCondReq hits (Count)
system.cpu.dcache.StoreCondReq.misses::cpu.data          781                       # number of StoreCondReq misses (Count)
system.cpu.dcache.StoreCondReq.misses::total          781                       # number of StoreCondReq misses (Count)
system.cpu.dcache.StoreCondReq.missLatency::cpu.data      7063364                       # number of StoreCondReq miss ticks (Tick)
system.cpu.dcache.StoreCondReq.missLatency::total      7063364                       # number of StoreCondReq miss ticks (Tick)
system.cpu.dcache.StoreCondReq.accesses::cpu.data         5965                       # number of StoreCondReq accesses(hits+misses) (Count)
system.cpu.dcache.StoreCondReq.accesses::total         5965                       # number of StoreCondReq accesses(hits+misses) (Count)
system.cpu.dcache.StoreCondReq.missRate::cpu.data     0.130930                       # miss rate for StoreCondReq accesses (Ratio)
system.cpu.dcache.StoreCondReq.missRate::total     0.130930                       # miss rate for StoreCondReq accesses (Ratio)
system.cpu.dcache.StoreCondReq.avgMissLatency::cpu.data         9044                       # average StoreCondReq miss latency ((Tick/Count))
system.cpu.dcache.StoreCondReq.avgMissLatency::total         9044                       # average StoreCondReq miss latency ((Tick/Count))
system.cpu.dcache.StoreCondReq.mshrMisses::cpu.data          781                       # number of StoreCondReq MSHR misses (Count)
system.cpu.dcache.StoreCondReq.mshrMisses::total          781                       # number of StoreCondReq MSHR misses (Count)
system.cpu.dcache.StoreCondReq.mshrMissLatency::cpu.data      5576340                       # number of StoreCondReq MSHR miss ticks (Tick)
system.cpu.dcache.StoreCondReq.mshrMissLatency::total      5576340                       # number of StoreCondReq MSHR miss ticks (Tick)
system.cpu.dcache.StoreCondReq.mshrMissRate::cpu.data     0.130930                       # mshr miss rate for StoreCondReq accesses (Ratio)
system.cpu.dcache.StoreCondReq.mshrMissRate::total     0.130930                       # mshr miss rate for StoreCondReq accesses (Ratio)
system.cpu.dcache.StoreCondReq.avgMshrMissLatency::cpu.data         7140                       # average StoreCondReq mshr miss latency ((Tick/Count))
system.cpu.dcache.StoreCondReq.avgMshrMissLatency::total         7140                       # average StoreCondReq mshr miss latency ((Tick/Count))
system.cpu.dcache.WriteLineReq.hits::cpu.data        63954                       # number of WriteLineReq hits (Count)
system.cpu.dcache.WriteLineReq.hits::total        63954                       # number of WriteLineReq hits (Count)
system.cpu.dcache.WriteLineReq.misses::cpu.data        10223                       # number of WriteLineReq misses (Count)
system.cpu.dcache.WriteLineReq.misses::total        10223                       # number of WriteLineReq misses (Count)
system.cpu.dcache.WriteLineReq.missLatency::cpu.data    407432459                       # number of WriteLineReq miss ticks (Tick)
system.cpu.dcache.WriteLineReq.missLatency::total    407432459                       # number of WriteLineReq miss ticks (Tick)
system.cpu.dcache.WriteLineReq.accesses::cpu.data        74177                       # number of WriteLineReq accesses(hits+misses) (Count)
system.cpu.dcache.WriteLineReq.accesses::total        74177                       # number of WriteLineReq accesses(hits+misses) (Count)
system.cpu.dcache.WriteLineReq.missRate::cpu.data     0.137819                       # miss rate for WriteLineReq accesses (Ratio)
system.cpu.dcache.WriteLineReq.missRate::total     0.137819                       # miss rate for WriteLineReq accesses (Ratio)
system.cpu.dcache.WriteLineReq.avgMissLatency::cpu.data 39854.490756                       # average WriteLineReq miss latency ((Tick/Count))
system.cpu.dcache.WriteLineReq.avgMissLatency::total 39854.490756                       # average WriteLineReq miss latency ((Tick/Count))
system.cpu.dcache.WriteLineReq.mshrHits::cpu.data         4682                       # number of WriteLineReq MSHR hits (Count)
system.cpu.dcache.WriteLineReq.mshrHits::total         4682                       # number of WriteLineReq MSHR hits (Count)
system.cpu.dcache.WriteLineReq.mshrMisses::cpu.data         5541                       # number of WriteLineReq MSHR misses (Count)
system.cpu.dcache.WriteLineReq.mshrMisses::total         5541                       # number of WriteLineReq MSHR misses (Count)
system.cpu.dcache.WriteLineReq.mshrMissLatency::cpu.data    245962788                       # number of WriteLineReq MSHR miss ticks (Tick)
system.cpu.dcache.WriteLineReq.mshrMissLatency::total    245962788                       # number of WriteLineReq MSHR miss ticks (Tick)
system.cpu.dcache.WriteLineReq.mshrMissRate::cpu.data     0.074700                       # mshr miss rate for WriteLineReq accesses (Ratio)
system.cpu.dcache.WriteLineReq.mshrMissRate::total     0.074700                       # mshr miss rate for WriteLineReq accesses (Ratio)
system.cpu.dcache.WriteLineReq.avgMshrMissLatency::cpu.data 44389.602599                       # average WriteLineReq mshr miss latency ((Tick/Count))
system.cpu.dcache.WriteLineReq.avgMshrMissLatency::total 44389.602599                       # average WriteLineReq mshr miss latency ((Tick/Count))
system.cpu.dcache.WriteReq.hits::cpu.data     29287077                       # number of WriteReq hits (Count)
system.cpu.dcache.WriteReq.hits::total       29287077                       # number of WriteReq hits (Count)
[...]
system.mem_ctrl.dram.numReads::total            28353                       # Number of read requests responded to by this memory (Count)
system.mem_ctrl.dram.numWrites::writebacks         7367                       # Number of write requests responded to by this memory (Count)
system.mem_ctrl.dram.numWrites::total            7367                       # Number of write requests responded to by this memory (Count)
system.mem_ctrl.dram.bwRead::cpu.inst         3071649                       # Total read bandwidth from this memory ((Byte/Second))
system.mem_ctrl.dram.bwRead::cpu.data         4479090                       # Total read bandwidth from this memory ((Byte/Second))
system.mem_ctrl.dram.bwRead::cpu.dcache.prefetcher      2607894                       # Total read bandwidth from this memory ((Byte/Second))
system.mem_ctrl.dram.bwRead::cpu.l2cache.prefetcher      1602401                       # Total read bandwidth from this memory ((Byte/Second))
system.mem_ctrl.dram.bwRead::total           11761034                       # Total read bandwidth from this memory ((Byte/Second))
system.mem_ctrl.dram.bwInstRead::cpu.inst      3071649                       # Instruction read bandwidth from this memory ((Byte/Second))
system.mem_ctrl.dram.bwInstRead::total        3071649                       # Instruction read bandwidth from this memory ((Byte/Second))
system.mem_ctrl.dram.bwWrite::writebacks      3055886                       # Write bandwidth from this memory ((Byte/Second))
system.mem_ctrl.dram.bwWrite::total           3055886                       # Write bandwidth from this memory ((Byte/Second))
system.mem_ctrl.dram.bwTotal::writebacks      3055886                       # Total bandwidth to/from this memory ((Byte/Second))
system.mem_ctrl.dram.bwTotal::cpu.inst        3071649                       # Total bandwidth to/from this memory ((Byte/Second))
system.mem_ctrl.dram.bwTotal::cpu.data        4479090                       # Total bandwidth to/from this memory ((Byte/Second))
system.mem_ctrl.dram.bwTotal::cpu.dcache.prefetcher      2607894                       # Total bandwidth to/from this memory ((Byte/Second))
system.mem_ctrl.dram.bwTotal::cpu.l2cache.prefetcher      1602401                       # Total bandwidth to/from this memory ((Byte/Second))
system.mem_ctrl.dram.bwTotal::total          14816920                       # Total bandwidth to/from this memory ((Byte/Second))
system.mem_ctrl.dram.readBursts                 25525                       # Number of DRAM read bursts (Count)
system.mem_ctrl.dram.writeBursts                 6861                       # Number of DRAM write bursts (Count)
system.mem_ctrl.dram.perBankRdBursts::0          1381                       # Per bank write bursts (Count)
system.mem_ctrl.dram.perBankRdBursts::1          1363                       # Per bank write bursts (Count)
system.mem_ctrl.dram.perBankRdBursts::2          4502                       # Per bank write bursts (Count)
system.mem_ctrl.dram.perBankRdBursts::3          1345                       # Per bank write bursts (Count)
system.mem_ctrl.dram.perBankRdBursts::4          1311                       # Per bank write bursts (Count)
system.mem_ctrl.dram.perBankRdBursts::5          1262                       # Per bank write bursts (Count)
system.mem_ctrl.dram.perBankRdBursts::6          1458                       # Per bank write bursts (Count)
system.mem_ctrl.dram.perBankRdBursts::7          1514                       # Per bank write bursts (Count)
system.mem_ctrl.dram.perBankRdBursts::8          1344                       # Per bank write bursts (Count)
system.mem_ctrl.dram.perBankRdBursts::9          1280                       # Per bank write bursts (Count)
system.mem_ctrl.dram.perBankRdBursts::10         2536                       # Per bank write bursts (Count)
system.mem_ctrl.dram.perBankRdBursts::11          986                       # Per bank write bursts (Count)
system.mem_ctrl.dram.perBankRdBursts::12         1231                       # Per bank write bursts (Count)
system.mem_ctrl.dram.perBankRdBursts::13         1213                       # Per bank write bursts (Count)
system.mem_ctrl.dram.perBankRdBursts::14         1286                       # Per bank write bursts (Count)
system.mem_ctrl.dram.perBankRdBursts::15         1513                       # Per bank write bursts (Count)
system.mem_ctrl.dram.perBankWrBursts::0           233                       # Per bank write bursts (Count)
system.mem_ctrl.dram.perBankWrBursts::1           259                       # Per bank write bursts (Count)
system.mem_ctrl.dram.perBankWrBursts::2          1425                       # Per bank write bursts (Count)
system.mem_ctrl.dram.perBankWrBursts::3            36                       # Per bank write bursts (Count)
system.mem_ctrl.dram.perBankWrBursts::4            57                       # Per bank write bursts (Count)
system.mem_ctrl.dram.perBankWrBursts::5           153                       # Per bank write bursts (Count)
system.mem_ctrl.dram.perBankWrBursts::6           387                       # Per bank write bursts (Count)
system.mem_ctrl.dram.perBankWrBursts::7           440                       # Per bank write bursts (Count)
system.mem_ctrl.dram.perBankWrBursts::8           309                       # Per bank write bursts (Count)
system.mem_ctrl.dram.perBankWrBursts::9           334                       # Per bank write bursts (Count)
system.mem_ctrl.dram.perBankWrBursts::10         1626                       # Per bank write bursts (Count)
system.mem_ctrl.dram.perBankWrBursts::11          155                       # Per bank write bursts (Count)
system.mem_ctrl.dram.perBankWrBursts::12          300                       # Per bank write bursts (Count)
system.mem_ctrl.dram.perBankWrBursts::13          281                       # Per bank write bursts (Count)
system.mem_ctrl.dram.perBankWrBursts::14          408                       # Per bank write bursts (Count)
system.mem_ctrl.dram.perBankWrBursts::15          458                       # Per bank write bursts (Count)
system.mem_ctrl.dram.totQLat                614143440                       # Total ticks spent queuing (Tick)
system.mem_ctrl.dram.totBusLat              127625000                       # Total ticks spent in databus transfers (Tick)
system.mem_ctrl.dram.totMemAccLat          1092737190                       # Total ticks spent from burst creation until serviced by the DRAM (Tick)
system.mem_ctrl.dram.avgQLat                 24060.47                       # Average queueing delay per DRAM burst ((Tick/Count))
system.mem_ctrl.dram.avgBusLat                5000.00                       # Average bus latency per DRAM burst ((Tick/Count))
system.mem_ctrl.dram.avgMemAccLat            42810.47                       # Average memory access latency per DRAM burst ((Tick/Count))
system.mem_ctrl.dram.readRowHits                19887                       # Number of row buffer hits during reads (Count)
system.mem_ctrl.dram.writeRowHits                4681                       # Number of row buffer hits during writes (Count)
system.mem_ctrl.dram.readRowHitRate             77.91                       # Row buffer hit rate for reads (Ratio)
system.mem_ctrl.dram.writeRowHitRate            68.23                       # Row buffer hit rate for writes (Ratio)
system.mem_ctrl.dram.bytesPerActivate::samples         7810                       # Bytes accessed per row activation (Byte)
system.mem_ctrl.dram.bytesPerActivate::mean   265.128809                       # Bytes accessed per row activation (Byte)
system.mem_ctrl.dram.bytesPerActivate::gmean   163.166124                       # Bytes accessed per row activation (Byte)
system.mem_ctrl.dram.bytesPerActivate::stdev   289.850694                       # Bytes accessed per row activation (Byte)
system.mem_ctrl.dram.bytesPerActivate::0-127         3109     39.81%     39.81% # Bytes accessed per row activation (Byte)
system.mem_ctrl.dram.bytesPerActivate::128-255         1939     24.83%     64.64% # Bytes accessed per row activation (Byte)
system.mem_ctrl.dram.bytesPerActivate::256-383          919     11.77%     76.40% # Bytes accessed per row activation (Byte)
system.mem_ctrl.dram.bytesPerActivate::384-511          538      6.89%     83.29% # Bytes accessed per row activation (Byte)
system.mem_ctrl.dram.bytesPerActivate::512-639          320      4.10%     87.39% # Bytes accessed per row activation (Byte)
system.mem_ctrl.dram.bytesPerActivate::640-767          132      1.69%     89.08% # Bytes accessed per row activation (Byte)
system.mem_ctrl.dram.bytesPerActivate::768-895          114      1.46%     90.54% # Bytes accessed per row activation (Byte)
system.mem_ctrl.dram.bytesPerActivate::896-1023           73      0.93%     91.47% # Bytes accessed per row activation (Byte)
system.mem_ctrl.dram.bytesPerActivate::1024-1151          666      8.53%    100.00% # Bytes accessed per row activation (Byte)
system.mem_ctrl.dram.bytesPerActivate::total         7810                       # Bytes accessed per row activation (Byte)
system.mem_ctrl.dram.bytesRead                1633600                       # Total bytes read (Byte)
system.mem_ctrl.dram.bytesWritten              439104                       # Total bytes written (Byte)
system.mem_ctrl.dram.avgRdBW                10.587959                       # Average DRAM read bandwidth in MiBytes/s ((Byte/Second))
system.mem_ctrl.dram.avgWrBW                 2.845994                       # Average DRAM write bandwidth in MiBytes/s ((Byte/Second))
system.mem_ctrl.dram.peakBW                  12800.00                       # Theoretical peak bandwidth in MiByte/s ((Byte/Second))
system.mem_ctrl.dram.busUtil                     0.10                       # Data bus utilization in percentage (Ratio)
system.mem_ctrl.dram.busUtilRead                 0.08                       # Data bus utilization in percentage for reads (Ratio)
system.mem_ctrl.dram.busUtilWrite                0.02                       # Data bus utilization in percentage for writes (Ratio)
system.mem_ctrl.dram.pageHitRate                75.86                       # Row buffer hit rate, read and write combined (Ratio)
system.mem_ctrl.dram.power_state.pwrStateResidencyTicks::UNDEFINED 154288475152                       # Cumulative time (in ticks) in various power states (Tick)
system.mem_ctrl.dram.rank0.actEnergy         31087560                       # Energy for activate commands per rank (pJ) (Joule)
system.mem_ctrl.dram.rank0.preEnergy         16504455                       # Energy for precharge commands per rank (pJ) (Joule)
system.mem_ctrl.dram.rank0.readEnergy       100931040                       # Energy for read commands per rank (pJ) (Joule)
system.mem_ctrl.dram.rank0.writeEnergy       15607800                       # Energy for write commands per rank (pJ) (Joule)
system.mem_ctrl.dram.rank0.refreshEnergy 12179091600.000002                       # Energy for refresh commands per rank (pJ) (Joule)
system.mem_ctrl.dram.rank0.actBackEnergy   6240525300                       # Energy for active background per rank (pJ) (Joule)
system.mem_ctrl.dram.rank0.preBackEnergy  53991595680                       # Energy for precharge background per rank (pJ) (Joule)
system.mem_ctrl.dram.rank0.actPowerDownEnergy            0                       # Energy for active power-down per rank (pJ) (Joule)
system.mem_ctrl.dram.rank0.prePowerDownEnergy            0                       # Energy for precharge power-down per rank (pJ) (Joule)
system.mem_ctrl.dram.rank0.selfRefreshEnergy            0                       # Energy for self refresh per rank (pJ) (Joule)
system.mem_ctrl.dram.rank0.totalEnergy    72575343435                       # Total energy per rank (pJ) (Joule)
system.mem_ctrl.dram.rank0.averagePower    470.387327                       # Core power per rank (mW) (Watt)
system.mem_ctrl.dram.rank0.totalIdleTime            0                       # Total Idle time Per DRAM Rank (Tick)
system.mem_ctrl.dram.rank0.pwrStateTime::IDLE 140297206456                       # Time in different power states (Tick)
system.mem_ctrl.dram.rank0.pwrStateTime::REF   5151900000                       # Time in different power states (Tick)
system.mem_ctrl.dram.rank0.pwrStateTime::SREF            0                       # Time in different power states (Tick)
system.mem_ctrl.dram.rank0.pwrStateTime::PRE_PDN            0                       # Time in different power states (Tick)
system.mem_ctrl.dram.rank0.pwrStateTime::ACT   8839368696                       # Time in different power states (Tick)
system.mem_ctrl.dram.rank0.pwrStateTime::ACT_PDN            0                       # Time in different power states (Tick)
system.mem_ctrl.dram.rank1.actEnergy         24732960                       # Energy for activate commands per rank (pJ) (Joule)
system.mem_ctrl.dram.rank1.preEnergy         13134495                       # Energy for precharge commands per rank (pJ) (Joule)
system.mem_ctrl.dram.rank1.readEnergy        81317460                       # Energy for read commands per rank (pJ) (Joule)
system.mem_ctrl.dram.rank1.writeEnergy       20206620                       # Energy for write commands per rank (pJ) (Joule)
system.mem_ctrl.dram.rank1.refreshEnergy 12179091600.000002                       # Energy for refresh commands per rank (pJ) (Joule)
system.mem_ctrl.dram.rank1.actBackEnergy   4845589380                       # Energy for active background per rank (pJ) (Joule)
system.mem_ctrl.dram.rank1.preBackEnergy  55166278560                       # Energy for precharge background per rank (pJ) (Joule)
system.mem_ctrl.dram.rank1.actPowerDownEnergy            0                       # Energy for active power-down per rank (pJ) (Joule)
system.mem_ctrl.dram.rank1.prePowerDownEnergy            0                       # Energy for precharge power-down per rank (pJ) (Joule)
system.mem_ctrl.dram.rank1.selfRefreshEnergy            0                       # Energy for self refresh per rank (pJ) (Joule)
system.mem_ctrl.dram.rank1.totalEnergy    72330351075                       # Total energy per rank (pJ) (Joule)
system.mem_ctrl.dram.rank1.averagePower    468.799442                       # Core power per rank (mW) (Watt)
system.mem_ctrl.dram.rank1.totalIdleTime            0                       # Total Idle time Per DRAM Rank (Tick)
system.mem_ctrl.dram.rank1.pwrStateTime::IDLE 143367552438                       # Time in different power states (Tick)
system.mem_ctrl.dram.rank1.pwrStateTime::REF   5151900000                       # Time in different power states (Tick)
system.mem_ctrl.dram.rank1.pwrStateTime::SREF            0                       # Time in different power states (Tick)
system.mem_ctrl.dram.rank1.pwrStateTime::PRE_PDN            0                       # Time in different power states (Tick)
system.mem_ctrl.dram.rank1.pwrStateTime::ACT   5769022714                       # Time in different power states (Tick)
system.mem_ctrl.dram.rank1.pwrStateTime::ACT_PDN            0                       # Time in different power states (Tick)
system.mem_ctrl.power_state.pwrStateResidencyTicks::UNDEFINED 154288475152                       # Cumulative time (in ticks) in various power states (Tick)
system.membus.transDist::ReadResp               22012                       # Transaction distribution (Count)
system.membus.transDist::WritebackDirty          7367                       # Transaction distribution (Count)
system.membus.transDist::CleanEvict              6720                       # Transaction distribution (Count)
system.membus.transDist::ReadExReq               6341                       # Transaction distribution (Count)
system.membus.transDist::ReadExResp              6341                       # Transaction distribution (Count)
system.membus.transDist::ReadSharedReq          22012                       # Transaction distribution (Count)
system.membus.transDist::InvalidateReq           2124                       # Transaction distribution (Count)
system.membus.pktCount_system.l3cache.mem_side_port::system.mem_ctrl.port        72917                       # Packet count per connected requestor and responder (Count)
system.membus.pktCount::total                   72917                       # Packet count per connected requestor and responder (Count)
system.membus.pktSize_system.l3cache.mem_side_port::system.mem_ctrl.port      2286080                       # Cumulative packet size per connected requestor and responder (Byte)
system.membus.pktSize::total                  2286080                       # Cumulative packet size per connected requestor and responder (Byte)
system.membus.snoops                                0                       # Total snoops (Count)
system.membus.snoopTraffic                          0                       # Total snoop traffic (Byte)
system.membus.snoopFanout::samples              30477                       # Request fanout histogram (Count)
system.membus.snoopFanout::mean                     0                       # Request fanout histogram (Count)
system.membus.snoopFanout::stdev                    0                       # Request fanout histogram (Count)
system.membus.snoopFanout::underflows               0      0.00%      0.00% # Request fanout histogram (Count)
system.membus.snoopFanout::0                    30477    100.00%    100.00% # Request fanout histogram (Count)
system.membus.snoopFanout::1                        0      0.00%    100.00% # Request fanout histogram (Count)
system.membus.snoopFanout::overflows                0      0.00%    100.00% # Request fanout histogram (Count)
system.membus.snoopFanout::min_value                0                       # Request fanout histogram (Count)
system.membus.snoopFanout::max_value                0                       # Request fanout histogram (Count)
system.membus.snoopFanout::total                30477                       # Request fanout histogram (Count)
system.membus.power_state.pwrStateResidencyTicks::UNDEFINED 154288475152                       # Cumulative time (in ticks) in various power states (Tick)
system.membus.reqLayer0.occupancy            35239232                       # Layer occupancy (ticks) (Tick)
system.membus.reqLayer0.utilization               0.0                       # Layer utilization (Ratio)
system.membus.respLayer0.occupancy           74909534                       # Layer occupancy (ticks) (Tick)
system.membus.respLayer0.utilization              0.0                       # Layer utilization (Ratio)
system.membus.snoop_filter.totRequests          44564                       # Total number of requests made to the snoop filter. (Count)
system.membus.snoop_filter.hitSingleRequests        14087                       # Number of requests hitting in the snoop filter with a single holder of the requested data. (Count)
system.membus.snoop_filter.hitMultiRequests            0                       # Number of requests hitting in the snoop filter with multiple (>1) holders of the requested data. (Count)
system.membus.snoop_filter.totSnoops                0                       # Total number of snoops made to the snoop filter. (Count)
system.membus.snoop_filter.hitSingleSnoops            0                       # Number of snoops hitting in the snoop filter with a single holder of the requested data. (Count)
system.membus.snoop_filter.hitMultiSnoops            0                       # Number of snoops hitting in the snoop filter with multiple (>1) holders of the requested data. (Count)
system.workload.inst.arm                            0                       # number of arm instructions executed (Count)
system.workload.inst.quiesce                        0                       # number of quiesce instructions executed (Count)

---------- End Simulation Statistics   ----------
