
---------- Begin Simulation Statistics ----------
simSeconds                                   0.139824                       # Number of seconds simulated (Second)
simTicks                                 139824047048                       # Number of ticks simulated (Tick)
finalTick                                139824047048                       # Number of ticks from beginning of simulation (restored from checkpoints and never reset) (Tick)
simFreq                                  1000000000000                       # The number of ticks per simulated second ((Tick/Second))
hostSeconds                                   1235.90                       # Real time elapsed on the host (Second)
hostTickRate                                113135678                       # The number of ticks simulated per host second (ticks/s) ((Tick/Second))
hostMemory                                    8541500                       # Number of bytes of host memory used (Byte)
simInsts                                    238353478                       # Number of instructions simulated (Count)
simOps                                      241296213                       # Number of ops (including micro ops) simulated (Count)
hostInstRate                                   192859                       # Simulator instruction rate (inst/s) ((Count/Second))
hostOpRate                                     195240                       # Simulator op (including micro ops) rate (op/s) ((Count/Second))
system.clk_domain.clock                           476                       # Clock period in ticks (Tick)
system.clk_domain.voltage_domain.voltage            1                       # Voltage in Volts (Volt)
system.cpu.numCycles                        293747999                       # Number of cpu cycles simulated (Cycle)
system.cpu.cpi                               1.231747                       # CPI: cycles per instruction (core level) ((Cycle/Count))
system.cpu.ipc                               0.811855                       # IPC: instructions per cycle (core level) ((Count/Cycle))
system.cpu.numWorkItemsStarted                      0                       # Number of work items this cpu started (Count)
system.cpu.numWorkItemsCompleted                    0                       # Number of work items this cpu completed (Count)
system.cpu.instsAdded                       251435236                       # Number of instructions added to the IQ (excludes non-spec) (Count)
system.cpu.nonSpecInstsAdded                      495                       # Number of non-speculative instructions added to the IQ (Count)
system.cpu.instsIssued                      250342787                       # Number of instructions issued (Count)
system.cpu.squashedInstsIssued                  15900                       # Number of squashed instructions issued (Count)
system.cpu.squashedInstsExamined             10139517                       # Number of squashed instructions iterated over during squash; mainly for profiling (Count)
system.cpu.squashedOperandsExamined          10568676                       # Number of squashed operands that are examined and possibly removed from graph (Count)
system.cpu.squashedNonSpecRemoved                 130                       # Number of squashed non-spec instructions that were removed (Count)
system.cpu.numIssuedDist::samples           293265552                       # Number of insts issued each cycle (Count)
system.cpu.numIssuedDist::mean               0.853639                       # Number of insts issued each cycle (Count)
system.cpu.numIssuedDist::stdev              0.923605                       # Number of insts issued each cycle (Count)
system.cpu.numIssuedDist::underflows                0      0.00%      0.00% # Number of insts issued each cycle (Count)
system.cpu.numIssuedDist::0                 126244154     43.05%     43.05% # Number of insts issued each cycle (Count)
system.cpu.numIssuedDist::1                 104501956     35.63%     78.68% # Number of insts issued each cycle (Count)
system.cpu.numIssuedDist::2                  44052401     15.02%     93.70% # Number of insts issued each cycle (Count)
system.cpu.numIssuedDist::3                  16387828      5.59%     99.29% # Number of insts issued each cycle (Count)
system.cpu.numIssuedDist::4                   1873917      0.64%     99.93% # Number of insts issued each cycle (Count)
system.cpu.numIssuedDist::5                    154953      0.05%     99.98% # Number of insts issued each cycle (Count)
system.cpu.numIssuedDist::6                     50289      0.02%    100.00% # Number of insts issued each cycle (Count)
system.cpu.numIssuedDist::7                        54      0.00%    100.00% # Number of insts issued each cycle (Count)
system.cpu.numIssuedDist::8                         0      0.00%    100.00% # Number of insts issued each cycle (Count)
system.cpu.numIssuedDist::overflows                 0      0.00%    100.00% # Number of insts issued each cycle (Count)
system.cpu.numIssuedDist::min_value                 0                       # Number of insts issued each cycle (Count)
system.cpu.numIssuedDist::max_value                 7                       # Number of insts issued each cycle (Count)
system.cpu.numIssuedDist::total             293265552                       # Number of insts issued each cycle (Count)
system.cpu.statFuBusy::No_OpClass                   0      0.00%      0.00% # attempts to use FU when none available (Count)
system.cpu.statFuBusy::IntAlu                    7577      0.12%      0.12% # attempts to use FU when none available (Count)
system.cpu.statFuBusy::IntMult                   4729      0.07%      0.19% # attempts to use FU when none available (Count)
system.cpu.statFuBusy::IntDiv                     145      0.00%      0.19% # attempts to use FU when none available (Count)
system.cpu.statFuBusy::FloatAdd                 85990      1.31%      1.50% # attempts to use FU when none available (Count)
system.cpu.statFuBusy::FloatCmp                485626      7.40%      8.90% # attempts to use FU when none available (Count)
system.cpu.statFuBusy::FloatCvt                 43178      0.66%      9.56% # attempts to use FU when none available (Count)
system.cpu.statFuBusy::FloatMult               166466      2.54%     12.09% # attempts to use FU when none available (Count)
system.cpu.statFuBusy::FloatMultAcc             70300      1.07%     13.16% # attempts to use FU when none available (Count)
system.cpu.statFuBusy::FloatDiv                  1260      0.02%     13.18% # attempts to use FU when none available (Count)
system.cpu.statFuBusy::FloatMisc                18272      0.28%     13.46% # attempts to use FU when none available (Count)
system.cpu.statFuBusy::FloatSqrt                    0      0.00%     13.46% # attempts to use FU when none available (Count)
system.cpu.statFuBusy::SimdAdd                      0      0.00%     13.46% # attempts to use FU when none available (Count)
system.cpu.statFuBusy::SimdAddAcc                   0      0.00%     13.46% # attempts to use FU when none available (Count)
system.cpu.statFuBusy::SimdAlu                      2      0.00%     13.46% # attempts to use FU when none available (Count)
system.cpu.statFuBusy::SimdCmp                    565      0.01%     13.47% # attempts to use FU when none available (Count)
system.cpu.statFuBusy::SimdCvt                      6      0.00%     13.47% # attempts to use FU when none available (Count)
system.cpu.statFuBusy::SimdMisc                  1575      0.02%     13.49% # attempts to use FU when none available (Count)
system.cpu.statFuBusy::SimdMult                     0      0.00%     13.49% # attempts to use FU when none available (Count)
system.cpu.statFuBusy::SimdMultAcc                  0      0.00%     13.49% # attempts to use FU when none available (Count)
system.cpu.statFuBusy::SimdMatMultAcc               0      0.00%     13.49% # attempts to use FU when none available (Count)
system.cpu.statFuBusy::SimdShift                    0      0.00%     13.49% # attempts to use FU when none available (Count)
system.cpu.statFuBusy::SimdShiftAcc                 0      0.00%     13.49% # attempts to use FU when none available (Count)
system.cpu.statFuBusy::SimdDiv                      0      0.00%     13.49% # attempts to use FU when none available (Count)
system.cpu.statFuBusy::SimdSqrt                     0      0.00%     13.49% # attempts to use FU when none available (Count)
system.cpu.statFuBusy::SimdFloatAdd                 0      0.00%     13.49% # attempts to use FU when none available (Count)
system.cpu.statFuBusy::SimdFloatAlu                 0      0.00%     13.49% # attempts to use FU when none available (Count)
system.cpu.statFuBusy::SimdFloatCmp                 0      0.00%     13.49% # attempts to use FU when none available (Count)
system.cpu.statFuBusy::SimdFloatCvt                 0      0.00%     13.49% # attempts to use FU when none available (Count)
system.cpu.statFuBusy::SimdFloatDiv                 0      0.00%     13.49% # attempts to use FU when none available (Count)
system.cpu.statFuBusy::SimdFloatMisc                0      0.00%     13.49% # attempts to use FU when none available (Count)
system.cpu.statFuBusy::SimdFloatMult                0      0.00%     13.49% # attempts to use FU when none available (Count)
system.cpu.statFuBusy::SimdFloatMultAcc             0      0.00%     13.49% # attempts to use FU when none available (Count)
system.cpu.statFuBusy::SimdFloatMatMultAcc            0      0.00%     13.49% # attempts to use FU when none available (Count)
system.cpu.statFuBusy::SimdFloatSqrt                0      0.00%     13.49% # attempts to use FU when none available (Count)
system.cpu.statFuBusy::SimdReduceAdd                0      0.00%     13.49% # attempts to use FU when none available (Count)
system.cpu.statFuBusy::SimdReduceAlu                0      0.00%     13.49% # attempts to use FU when none available (Count)
system.cpu.statFuBusy::SimdReduceCmp                0      0.00%     13.49% # attempts to use FU when none available (Count)
system.cpu.statFuBusy::SimdFloatReduceAdd            0      0.00%     13.49% # attempts to use FU when none available (Count)
system.cpu.statFuBusy::SimdFloatReduceCmp            0      0.00%     13.49% # attempts to use FU when none available (Count)
system.cpu.statFuBusy::SimdAes                      0      0.00%     13.49% # attempts to use FU when none available (Count)
system.cpu.statFuBusy::SimdAesMix                   0      0.00%     13.49% # attempts to use FU when none available (Count)
system.cpu.statFuBusy::SimdSha1Hash                 0      0.00%     13.49% # attempts to use FU when none available (Count)
system.cpu.statFuBusy::SimdSha1Hash2                0      0.00%     13.49% # attempts to use FU when none available (Count)
system.cpu.statFuBusy::SimdSha256Hash               0      0.00%     13.49% # attempts to use FU when none available (Count)
system.cpu.statFuBusy::SimdSha256Hash2              0      0.00%     13.49% # attempts to use FU when none available (Count)
system.cpu.statFuBusy::SimdShaSigma2                0      0.00%     13.49% # attempts to use FU when none available (Count)
system.cpu.statFuBusy::SimdShaSigma3                0      0.00%     13.49% # attempts to use FU when none available (Count)
system.cpu.statFuBusy::SimdPredAlu                  0      0.00%     13.49% # attempts to use FU when none available (Count)
system.cpu.statFuBusy::Matrix                       0      0.00%     13.49% # attempts to use FU when none available (Count)
system.cpu.statFuBusy::MatrixMov                    0      0.00%     13.49% # attempts to use FU when none available (Count)
system.cpu.statFuBusy::MatrixOP                     0      0.00%     13.49% # attempts to use FU when none available (Count)
system.cpu.statFuBusy::MemRead                3563188     54.28%     67.77% # attempts to use FU when none available (Count)
system.cpu.statFuBusy::MemWrite               2115686     32.23%    100.00% # attempts to use FU when none available (Count)
system.cpu.statFuBusy::FloatMemRead                 0      0.00%    100.00% # attempts to use FU when none available (Count)
system.cpu.statFuBusy::FloatMemWrite                0      0.00%    100.00% # attempts to use FU when none available (Count)
system.cpu.statFuBusy::IprAccess                    0      0.00%    100.00% # attempts to use FU when none available (Count)
system.cpu.statFuBusy::InstPrefetch                 0      0.00%    100.00% # attempts to use FU when none available (Count)
system.cpu.statFuBusy::VectorUnitStrideLoad            0      0.00%    100.00% # attempts to use FU when none available (Count)
system.cpu.statFuBusy::VectorUnitStrideStore            0      0.00%    100.00% # attempts to use FU when none available (Count)
system.cpu.statFuBusy::VectorUnitStrideMaskLoad            0      0.00%    100.00% # attempts to use FU when none available (Count)
system.cpu.statFuBusy::VectorUnitStrideMaskStore            0      0.00%    100.00% # attempts to use FU when none available (Count)
system.cpu.statFuBusy::VectorStridedLoad            0      0.00%    100.00% # attempts to use FU when none available (Count)
system.cpu.statFuBusy::VectorStridedStore            0      0.00%    100.00% # attempts to use FU when none available (Count)
system.cpu.statFuBusy::VectorIndexedLoad            0      0.00%    100.00% # attempts to use FU when none available (Count)
system.cpu.statFuBusy::VectorIndexedStore            0      0.00%    100.00% # attempts to use FU when none available (Count)
system.cpu.statFuBusy::VectorUnitStrideFaultOnlyFirstLoad            0      0.00%    100.00% # attempts to use FU when none available (Count)
system.cpu.statFuBusy::VectorWholeRegisterLoad            0      0.00%    100.00% # attempts to use FU when none available (Count)
system.cpu.statFuBusy::VectorWholeRegisterStore            0      0.00%    100.00% # attempts to use FU when none available (Count)
system.cpu.statFuBusy::VectorIntegerArith            0      0.00%    100.00% # attempts to use FU when none available (Count)
system.cpu.statFuBusy::VectorFloatArith             0      0.00%    100.00% # attempts to use FU when none available (Count)
system.cpu.statFuBusy::VectorFloatConvert            0      0.00%    100.00% # attempts to use FU when none available (Count)
system.cpu.statFuBusy::VectorIntegerReduce            0      0.00%    100.00% # attempts to use FU when none available (Count)
system.cpu.statFuBusy::VectorFloatReduce            0      0.00%    100.00% # attempts to use FU when none available (Count)
system.cpu.statFuBusy::VectorMisc                   0      0.00%    100.00% # attempts to use FU when none available (Count)
system.cpu.statFuBusy::VectorIntegerExtension            0      0.00%    100.00% # attempts to use FU when none available (Count)
system.cpu.statFuBusy::VectorConfig                 0      0.00%    100.00% # attempts to use FU when none available (Count)
system.cpu.statIssuedInstType_0::No_OpClass          189      0.00%      0.00% # Number of instructions issued per FU type, per thread (Count)
system.cpu.statIssuedInstType_0::IntAlu      86575474     34.58%     34.58% # Number of instructions issued per FU type, per thread (Count)
system.cpu.statIssuedInstType_0::IntMult       647172      0.26%     34.84% # Number of instructions issued per FU type, per thread (Count)
system.cpu.statIssuedInstType_0::IntDiv         14732      0.01%     34.85% # Number of instructions issued per FU type, per thread (Count)
system.cpu.statIssuedInstType_0::FloatAdd      8539595      3.41%     38.26% # Number of instructions issued per FU type, per thread (Count)
system.cpu.statIssuedInstType_0::FloatCmp      2308781      0.92%     39.18% # Number of instructions issued per FU type, per thread (Count)
system.cpu.statIssuedInstType_0::FloatCvt       727729      0.29%     39.47% # Number of instructions issued per FU type, per thread (Count)
system.cpu.statIssuedInstType_0::FloatMult      7388785      2.95%     42.42% # Number of instructions issued per FU type, per thread (Count)
system.cpu.statIssuedInstType_0::FloatMultAcc      1116778      0.45%     42.87% # Number of instructions issued per FU type, per thread (Count)
system.cpu.statIssuedInstType_0::FloatDiv       222918      0.09%     42.96% # Number of instructions issued per FU type, per thread (Count)
system.cpu.statIssuedInstType_0::FloatMisc      1936691      0.77%     43.73% # Number of instructions issued per FU type, per thread (Count)
system.cpu.statIssuedInstType_0::FloatSqrt       111768      0.04%     43.78% # Number of instructions issued per FU type, per thread (Count)
system.cpu.statIssuedInstType_0::SimdAdd          426      0.00%     43.78% # Number of instructions issued per FU type, per thread (Count)
system.cpu.statIssuedInstType_0::SimdAddAcc            0      0.00%     43.78% # Number of instructions issued per FU type, per thread (Count)
system.cpu.statIssuedInstType_0::SimdAlu         5547      0.00%     43.78% # Number of instructions issued per FU type, per thread (Count)
system.cpu.statIssuedInstType_0::SimdCmp          793      0.00%     43.78% # Number of instructions issued per FU type, per thread (Count)
system.cpu.statIssuedInstType_0::SimdCvt      1601070      0.64%     44.42% # Number of instructions issued per FU type, per thread (Count)
system.cpu.statIssuedInstType_0::SimdMisc        11898      0.00%     44.42% # Number of instructions issued per FU type, per thread (Count)
system.cpu.statIssuedInstType_0::SimdMult            0      0.00%     44.42% # Number of instructions issued per FU type, per thread (Count)
system.cpu.statIssuedInstType_0::SimdMultAcc            0      0.00%     44.42% # Number of instructions issued per FU type, per thread (Count)
system.cpu.statIssuedInstType_0::SimdMatMultAcc            0      0.00%     44.42% # Number of instructions issued per FU type, per thread (Count)
system.cpu.statIssuedInstType_0::SimdShift            0      0.00%     44.42% # Number of instructions issued per FU type, per thread (Count)
system.cpu.statIssuedInstType_0::SimdShiftAcc            0      0.00%     44.42% # Number of instructions issued per FU type, per thread (Count)
system.cpu.statIssuedInstType_0::SimdDiv            0      0.00%     44.42% # Number of instructions issued per FU type, per thread (Count)
system.cpu.statIssuedInstType_0::SimdSqrt            0      0.00%     44.42% # Number of instructions issued per FU type, per thread (Count)
system.cpu.statIssuedInstType_0::SimdFloatAdd            0      0.00%     44.42% # Number of instructions issued per FU type, per thread (Count)
system.cpu.statIssuedInstType_0::SimdFloatAlu            0      0.00%     44.42% # Number of instructions issued per FU type, per thread (Count)
system.cpu.statIssuedInstType_0::SimdFloatCmp            0      0.00%     44.42% # Number of instructions issued per FU type, per thread (Count)
system.cpu.statIssuedInstType_0::SimdFloatCvt            0      0.00%     44.42% # Number of instructions issued per FU type, per thread (Count)
system.cpu.statIssuedInstType_0::SimdFloatDiv            0      0.00%     44.42% # Number of instructions issued per FU type, per thread (Count)
system.cpu.statIssuedInstType_0::SimdFloatMisc            0      0.00%     44.42% # Number of instructions issued per FU type, per thread (Count)
system.cpu.statIssuedInstType_0::SimdFloatMult            0      0.00%     44.42% # Number of instructions issued per FU type, per thread (Count)
system.cpu.statIssuedInstType_0::SimdFloatMultAcc            0      0.00%     44.42% # Number of instructions issued per FU type, per thread (Count)
system.cpu.statIssuedInstType_0::SimdFloatMatMultAcc            0      0.00%     44.42% # Number of instructions issued per FU type, per thread (Count)
system.cpu.statIssuedInstType_0::SimdFloatSqrt            0      0.00%     44.42% # Number of instructions issued per FU type, per thread (Count)
system.cpu.statIssuedInstType_0::SimdReduceAdd            0      0.00%     44.42% # Number of instructions issued per FU type, per thread (Count)
system.cpu.statIssuedInstType_0::SimdReduceAlu            0      0.00%     44.42% # Number of instructions issued per FU type, per thread (Count)
system.cpu.statIssuedInstType_0::SimdReduceCmp            0      0.00%     44.42% # Number of instructions issued per FU type, per thread (Count)
system.cpu.statIssuedInstType_0::SimdFloatReduceAdd            0      0.00%     44.42% # Number of instructions issued per FU type, per thread (Count)
system.cpu.statIssuedInstType_0::SimdFloatReduceCmp            0      0.00%     44.42% # Number of instructions issued per FU type, per thread (Count)
system.cpu.statIssuedInstType_0::SimdAes            0      0.00%     44.42% # Number of instructions issued per FU type, per thread (Count)
system.cpu.statIssuedInstType_0::SimdAesMix            0      0.00%     44.42% # Number of instructions issued per FU type, per thread (Count)
system.cpu.statIssuedInstType_0::SimdSha1Hash            0      0.00%     44.42% # Number of instructions issued per FU type, per thread (Count)
system.cpu.statIssuedInstType_0::SimdSha1Hash2            0      0.00%     44.42% # Number of instructions issued per FU type, per thread (Count)
system.cpu.statIssuedInstType_0::SimdSha256Hash            0      0.00%     44.42% # Number of instructions issued per FU type, per thread (Count)
system.cpu.statIssuedInstType_0::SimdSha256Hash2            0      0.00%     44.42% # Number of instructions issued per FU type, per thread (Count)
system.cpu.statIssuedInstType_0::SimdShaSigma2            0      0.00%     44.42% # Number of instructions issued per FU type, per thread (Count)
system.cpu.statIssuedInstType_0::SimdShaSigma3            0      0.00%     44.42% # Number of instructions issued per FU type, per thread (Count)
system.cpu.statIssuedInstType_0::SimdPredAlu            0      0.00%     44.42% # Number of instructions issued per FU type, per thread (Count)
system.cpu.statIssuedInstType_0::Matrix             0      0.00%     44.42% # Number of instructions issued per FU type, per thread (Count)
system.cpu.statIssuedInstType_0::MatrixMov            0      0.00%     44.42% # Number of instructions issued per FU type, per thread (Count)
system.cpu.statIssuedInstType_0::MatrixOP            0      0.00%     44.42% # Number of instructions issued per FU type, per thread (Count)
system.cpu.statIssuedInstType_0::MemRead    106767603     42.65%     87.07% # Number of instructions issued per FU type, per thread (Count)
system.cpu.statIssuedInstType_0::MemWrite     32364838     12.93%    100.00% # Number of instructions issued per FU type, per thread (Count)
system.cpu.statIssuedInstType_0::FloatMemRead            0      0.00%    100.00% # Number of instructions issued per FU type, per thread (Count)
system.cpu.statIssuedInstType_0::FloatMemWrite            0      0.00%    100.00% # Number of instructions issued per FU type, per thread (Count)
system.cpu.statIssuedInstType_0::IprAccess            0      0.00%    100.00% # Number of instructions issued per FU type, per thread (Count)
system.cpu.statIssuedInstType_0::InstPrefetch            0      0.00%    100.00% # Number of instructions issued per FU type, per thread (Count)
system.cpu.statIssuedInstType_0::VectorUnitStrideLoad            0      0.00%    100.00% # Number of instructions issued per FU type, per thread (Count)
system.cpu.statIssuedInstType_0::VectorUnitStrideStore            0      0.00%    100.00% # Number of instructions issued per FU type, per thread (Count)
system.cpu.statIssuedInstType_0::VectorUnitStrideMaskLoad            0      0.00%    100.00% # Number of instructions issued per FU type, per thread (Count)
system.cpu.statIssuedInstType_0::VectorUnitStrideMaskStore            0      0.00%    100.00% # Number of instructions issued per FU type, per thread (Count)
system.cpu.statIssuedInstType_0::VectorStridedLoad            0      0.00%    100.00% # Number of instructions issued per FU type, per thread (Count)
system.cpu.statIssuedInstType_0::VectorStridedStore            0      0.00%    100.00% # Number of instructions issued per FU type, per thread (Count)
system.cpu.statIssuedInstType_0::VectorIndexedLoad            0      0.00%    100.00% # Number of instructions issued per FU type, per thread (Count)
system.cpu.statIssuedInstType_0::VectorIndexedStore            0      0.00%    100.00% # Number of instructions issued per FU type, per thread (Count)
system.cpu.statIssuedInstType_0::VectorUnitStrideFaultOnlyFirstLoad            0      0.00%    100.00% # Number of instructions issued per FU type, per thread (Count)
system.cpu.statIssuedInstType_0::VectorWholeRegisterLoad            0      0.00%    100.00% # Number of instructions issued per FU type, per thread (Count)
system.cpu.statIssuedInstType_0::VectorWholeRegisterStore            0      0.00%    100.00% # Number of instructions issued per FU type, per thread (Count)
system.cpu.statIssuedInstType_0::VectorIntegerArith            0      0.00%    100.00% # Number of instructions issued per FU type, per thread (Count)
system.cpu.statIssuedInstType_0::VectorFloatArith            0      0.00%    100.00% # Number of instructions issued per FU type, per thread (Count)
system.cpu.statIssuedInstType_0::VectorFloatConvert            0      0.00%    100.00% # Number of instructions issued per FU type, per thread (Count)
system.cpu.statIssuedInstType_0::VectorIntegerReduce            0      0.00%    100.00% # Number of instructions issued per FU type, per thread (Count)
system.cpu.statIssuedInstType_0::VectorFloatReduce            0      0.00%    100.00% # Number of instructions issued per FU type, per thread (Count)
system.cpu.statIssuedInstType_0::VectorMisc            0      0.00%    100.00% # Number of instructions issued per FU type, per thread (Count)
system.cpu.statIssuedInstType_0::VectorIntegerExtension            0      0.00%    100.00% # Number of instructions issued per FU type, per thread (Count)
system.cpu.statIssuedInstType_0::VectorConfig            0      0.00%    100.00% # Number of instructions issued per FU type, per thread (Count)
system.cpu.statIssuedInstType_0::total      250342787                       # Number of instructions issued per FU type, per thread (Count)
system.cpu.issueRate                         0.852237                       # Inst issue rate ((Count/Cycle))
system.cpu.fuBusy                             6564565                       # FU busy when requested (Count)
system.cpu.fuBusyRate                        0.026222                       # FU busy rate (busy events/executed inst) ((Count/Count))
system.cpu.intInstQueueReads                659316147                       # Number of integer instruction queue reads (Count)
system.cpu.intInstQueueWrites               190293952                       # Number of integer instruction queue writes (Count)
system.cpu.intInstQueueWakeupAccesses       177113596                       # Number of integer instruction queue wakeup accesses (Count)
system.cpu.fpInstQueueReads                         0                       # Number of floating instruction queue reads (Count)
system.cpu.fpInstQueueWrites                        0                       # Number of floating instruction queue writes (Count)
system.cpu.fpInstQueueWakeupAccesses                0                       # Number of floating instruction queue wakeup accesses (Count)
system.cpu.vecInstQueueReads                141215444                       # Number of vector instruction queue reads (Count)
system.cpu.vecInstQueueWrites                71403734                       # Number of vector instruction queue writes (Count)
system.cpu.vecInstQueueWakeupAccesses        68573927                       # Number of vector instruction queue wakeup accesses (Count)
system.cpu.intAluAccesses                   185245524                       # Number of integer alu accesses (Count)
system.cpu.fpAluAccesses                            0                       # Number of floating point alu accesses (Count)
system.cpu.vecAluAccesses                    71661639                       # Number of vector alu accesses (Count)
system.cpu.numSquashedInsts                   1019104                       # Number of squashed instructions skipped in execute (Count)
system.cpu.numSwp                                   0                       # Number of swp insts executed (Count)
system.cpu.timesIdled                            3756                       # Number of times that the entire CPU went into an idle state and unscheduled itself (Count)
system.cpu.idleCycles                          482447                       # Total number of cycles that the CPU has spent unscheduled due to idling (Cycle)
system.cpu.MemDepUnit__0.insertedLoads      105016062                       # Number of loads inserted to the mem dependence unit. (Count)
system.cpu.MemDepUnit__0.insertedStores      33122493                       # Number of stores inserted to the mem dependence unit. (Count)
system.cpu.MemDepUnit__0.conflictingLoads     43524154                       # Number of conflicting loads. (Count)
system.cpu.MemDepUnit__0.conflictingStores      8624054                       # Number of conflicting stores. (Count)
system.cpu.MemDepUnit__1.insertedLoads              0                       # Number of loads inserted to the mem dependence unit. (Count)
system.cpu.MemDepUnit__1.insertedStores             0                       # Number of stores inserted to the mem dependence unit. (Count)
system.cpu.MemDepUnit__1.conflictingLoads            0                       # Number of conflicting loads. (Count)
system.cpu.MemDepUnit__1.conflictingStores            0                       # Number of conflicting stores. (Count)
system.cpu.MemDepUnit__2.insertedLoads              0                       # Number of loads inserted to the mem dependence unit. (Count)
system.cpu.MemDepUnit__2.insertedStores             0                       # Number of stores inserted to the mem dependence unit. (Count)
system.cpu.MemDepUnit__2.conflictingLoads            0                       # Number of conflicting loads. (Count)
system.cpu.MemDepUnit__2.conflictingStores            0                       # Number of conflicting stores. (Count)
system.cpu.MemDepUnit__3.insertedLoads              0                       # Number of loads inserted to the mem dependence unit. (Count)
system.cpu.MemDepUnit__3.insertedStores             0                       # Number of stores inserted to the mem dependence unit. (Count)
system.cpu.MemDepUnit__3.conflictingLoads            0                       # Number of conflicting loads. (Count)
system.cpu.MemDepUnit__3.conflictingStores            0                       # Number of conflicting stores. (Count)
system.cpu.branchPred.lookups                14342774                       # Number of BP lookups (Count)
system.cpu.branchPred.condPredicted          12115525                       # Number of conditional branches predicted (Count)
system.cpu.branchPred.condIncorrect            514090                       # Number of conditional branches incorrect (Count)
system.cpu.branchPred.BTBLookups             11357206                       # Number of BTB lookups (Count)
system.cpu.branchPred.BTBUpdates               170905                       # Number of BTB updates (Count)
system.cpu.branchPred.BTBHits                11327060                       # Number of BTB hits (Count)
system.cpu.branchPred.BTBHitRatio            0.997346                       # BTB Hit Ratio (Ratio)
system.cpu.branchPred.RASUsed                  711001                       # Number of times the RAS was used to get a target. (Count)
system.cpu.branchPred.RASIncorrect                126                       # Number of incorrect RAS predictions. (Count)
system.cpu.branchPred.indirectLookups           61876                       # Number of indirect predictor lookups. (Count)
system.cpu.branchPred.indirectHits              55361                       # Number of indirect target hits. (Count)
system.cpu.branchPred.indirectMisses             6515                       # Number of indirect misses. (Count)
system.cpu.branchPred.indirectMispredicted         3617                       # Number of mispredicted indirect branches. (Count)
system.cpu.commit.commitSquashedInsts         9425340                       # The number of squashed insts skipped by commit (Count)
system.cpu.commit.commitNonSpecStalls             365                       # The number of times commit has been forced to stall to communicate backwards (Count)
system.cpu.commit.branchMispredicts            509361                       # The number of times a branch was mispredicted (Count)
system.cpu.commit.numCommittedDist::samples    291788301                       # Number of insts commited each cycle (Count)
system.cpu.commit.numCommittedDist::mean     0.827393                       # Number of insts commited each cycle (Count)
system.cpu.commit.numCommittedDist::stdev     1.293608                       # Number of insts commited each cycle (Count)
system.cpu.commit.numCommittedDist::underflows            0      0.00%      0.00% # Number of insts commited each cycle (Count)
system.cpu.commit.numCommittedDist::0       174492331     59.80%     59.80% # Number of insts commited each cycle (Count)
system.cpu.commit.numCommittedDist::1        62094138     21.28%     81.08% # Number of insts commited each cycle (Count)
system.cpu.commit.numCommittedDist::2        16529344      5.66%     86.75% # Number of insts commited each cycle (Count)
system.cpu.commit.numCommittedDist::3         8419178      2.89%     89.63% # Number of insts commited each cycle (Count)
system.cpu.commit.numCommittedDist::4        30253310     10.37%    100.00% # Number of insts commited each cycle (Count)
system.cpu.commit.numCommittedDist::overflows            0      0.00%    100.00% # Number of insts commited each cycle (Count)
system.cpu.commit.numCommittedDist::min_value            0                       # Number of insts commited each cycle (Count)
system.cpu.commit.numCommittedDist::max_value            4                       # Number of insts commited each cycle (Count)
system.cpu.commit.numCommittedDist::total    291788301                       # Number of insts commited each cycle (Count)
system.cpu.commit.amos                              0                       # Number of atomic instructions committed (Count)
system.cpu.commit.membars                         314                       # Number of memory barriers committed (Count)
system.cpu.commit.functionCalls                562498                       # Number of function calls committed. (Count)
system.cpu.commit.committedInstType_0::No_OpClass          179      0.00%      0.00% # Class of committed instruction (Count)
system.cpu.commit.committedInstType_0::IntAlu     84575692     35.03%     35.03% # Class of committed instruction (Count)
system.cpu.commit.committedInstType_0::IntMult       637788      0.26%     35.30% # Class of committed instruction (Count)
system.cpu.commit.committedInstType_0::IntDiv        13838      0.01%     35.30% # Class of committed instruction (Count)
system.cpu.commit.committedInstType_0::FloatAdd      8504365      3.52%     38.82% # Class of committed instruction (Count)
system.cpu.commit.committedInstType_0::FloatCmp      2241901      0.93%     39.75% # Class of committed instruction (Count)
system.cpu.commit.committedInstType_0::FloatCvt       708985      0.29%     40.05% # Class of committed instruction (Count)
system.cpu.commit.committedInstType_0::FloatMult      7373187      3.05%     43.10% # Class of committed instruction (Count)
system.cpu.commit.committedInstType_0::FloatMultAcc      1114336      0.46%     43.56% # Class of committed instruction (Count)
system.cpu.commit.committedInstType_0::FloatDiv       200437      0.08%     43.65% # Class of committed instruction (Count)
system.cpu.commit.committedInstType_0::FloatMisc      1859921      0.77%     44.42% # Class of committed instruction (Count)
system.cpu.commit.committedInstType_0::FloatSqrt       111553      0.05%     44.46% # Class of committed instruction (Count)
system.cpu.commit.committedInstType_0::SimdAdd          397      0.00%     44.46% # Class of committed instruction (Count)
system.cpu.commit.committedInstType_0::SimdAddAcc            0      0.00%     44.46% # Class of committed instruction (Count)
system.cpu.commit.committedInstType_0::SimdAlu         5409      0.00%     44.46% # Class of committed instruction (Count)
system.cpu.commit.committedInstType_0::SimdCmp          740      0.00%     44.46% # Class of committed instruction (Count)
system.cpu.commit.committedInstType_0::SimdCvt      1598597      0.66%     45.13% # Class of committed instruction (Count)
system.cpu.commit.committedInstType_0::SimdMisc        11052      0.00%     45.13% # Class of committed instruction (Count)
system.cpu.commit.committedInstType_0::SimdMult            0      0.00%     45.13% # Class of committed instruction (Count)
system.cpu.commit.committedInstType_0::SimdMultAcc            0      0.00%     45.13% # Class of committed instruction (Count)
system.cpu.commit.committedInstType_0::SimdMatMultAcc            0      0.00%     45.13% # Class of committed instruction (Count)
system.cpu.commit.committedInstType_0::SimdShift            0      0.00%     45.13% # Class of committed instruction (Count)
system.cpu.commit.committedInstType_0::SimdShiftAcc            0      0.00%     45.13% # Class of committed instruction (Count)
system.cpu.commit.committedInstType_0::SimdDiv            0      0.00%     45.13% # Class of committed instruction (Count)
system.cpu.commit.committedInstType_0::SimdSqrt            0      0.00%     45.13% # Class of committed instruction (Count)
system.cpu.commit.committedInstType_0::SimdFloatAdd            0      0.00%     45.13% # Class of committed instruction (Count)
system.cpu.commit.committedInstType_0::SimdFloatAlu            0      0.00%     45.13% # Class of committed instruction (Count)
system.cpu.commit.committedInstType_0::SimdFloatCmp            0      0.00%     45.13% # Class of committed instruction (Count)
system.cpu.commit.committedInstType_0::SimdFloatCvt            0      0.00%     45.13% # Class of committed instruction (Count)
system.cpu.commit.committedInstType_0::SimdFloatDiv            0      0.00%     45.13% # Class of committed instruction (Count)
system.cpu.commit.committedInstType_0::SimdFloatMisc            0      0.00%     45.13% # Class of committed instruction (Count)
system.cpu.commit.committedInstType_0::SimdFloatMult            0      0.00%     45.13% # Class of committed instruction (Count)
system.cpu.commit.committedInstType_0::SimdFloatMultAcc            0      0.00%     45.13% # Class of committed instruction (Count)
system.cpu.commit.committedInstType_0::SimdFloatMatMultAcc            0      0.00%     45.13% # Class of committed instruction (Count)
system.cpu.commit.committedInstType_0::SimdFloatSqrt            0      0.00%     45.13% # Class of committed instruction (Count)
system.cpu.commit.committedInstType_0::SimdReduceAdd            0      0.00%     45.13% # Class of committed instruction (Count)
system.cpu.commit.committedInstType_0::SimdReduceAlu            0      0.00%     45.13% # Class of committed instruction (Count)
system.cpu.commit.committedInstType_0::SimdReduceCmp            0      0.00%     45.13% # Class of committed instruction (Count)
system.cpu.commit.committedInstType_0::SimdFloatReduceAdd            0      0.00%     45.13% # Class of committed instruction (Count)
system.cpu.commit.committedInstType_0::SimdFloatReduceCmp            0      0.00%     45.13% # Class of committed instruction (Count)
system.cpu.commit.committedInstType_0::SimdAes            0      0.00%     45.13% # Class of committed instruction (Count)
system.cpu.commit.committedInstType_0::SimdAesMix            0      0.00%     45.13% # Class of committed instruction (Count)
system.cpu.commit.committedInstType_0::SimdSha1Hash            0      0.00%     45.13% # Class of committed instruction (Count)
system.cpu.commit.committedInstType_0::SimdSha1Hash2            0      0.00%     45.13% # Class of committed instruction (Count)
system.cpu.commit.committedInstType_0::SimdSha256Hash            0      0.00%     45.13% # Class of committed instruction (Count)
system.cpu.commit.committedInstType_0::SimdSha256Hash2            0      0.00%     45.13% # Class of committed instruction (Count)
system.cpu.commit.committedInstType_0::SimdShaSigma2            0      0.00%     45.13% # Class of committed instruction (Count)
system.cpu.commit.committedInstType_0::SimdShaSigma3            0      0.00%     45.13% # Class of committed instruction (Count)
system.cpu.commit.committedInstType_0::SimdPredAlu            0      0.00%     45.13% # Class of committed instruction (Count)
system.cpu.commit.committedInstType_0::Matrix            0      0.00%     45.13% # Class of committed instruction (Count)
system.cpu.commit.committedInstType_0::MatrixMov            0      0.00%     45.13% # Class of committed instruction (Count)
system.cpu.commit.committedInstType_0::MatrixOP            0      0.00%     45.13% # Class of committed instruction (Count)
system.cpu.commit.committedInstType_0::MemRead    100668162     41.70%     86.83% # Class of committed instruction (Count)
system.cpu.commit.committedInstType_0::MemWrite     31797061     13.17%    100.00% # Class of committed instruction (Count)
system.cpu.commit.committedInstType_0::FloatMemRead            0      0.00%    100.00% # Class of committed instruction (Count)
system.cpu.commit.committedInstType_0::FloatMemWrite            0      0.00%    100.00% # Class of committed instruction (Count)
system.cpu.commit.committedInstType_0::IprAccess            0      0.00%    100.00% # Class of committed instruction (Count)
system.cpu.commit.committedInstType_0::InstPrefetch            0      0.00%    100.00% # Class of committed instruction (Count)
system.cpu.commit.committedInstType_0::VectorUnitStrideLoad            0      0.00%    100.00% # Class of committed instruction (Count)
system.cpu.commit.committedInstType_0::VectorUnitStrideStore            0      0.00%    100.00% # Class of committed instruction (Count)
system.cpu.commit.committedInstType_0::VectorUnitStrideMaskLoad            0      0.00%    100.00% # Class of committed instruction (Count)
system.cpu.commit.committedInstType_0::VectorUnitStrideMaskStore            0      0.00%    100.00% # Class of committed instruction (Count)
system.cpu.commit.committedInstType_0::VectorStridedLoad            0      0.00%    100.00% # Class of committed instruction (Count)
system.cpu.commit.committedInstType_0::VectorStridedStore            0      0.00%    100.00% # Class of committed instruction (Count)
system.cpu.commit.committedInstType_0::VectorIndexedLoad            0      0.00%    100.00% # Class of committed instruction (Count)
system.cpu.commit.committedInstType_0::VectorIndexedStore            0      0.00%    100.00% # Class of committed instruction (Count)
system.cpu.commit.committedInstType_0::VectorUnitStrideFaultOnlyFirstLoad            0      0.00%    100.00% # Class of committed instruction (Count)
system.cpu.commit.committedInstType_0::VectorWholeRegisterLoad            0      0.00%    100.00% # Class of committed instruction (Count)
system.cpu.commit.committedInstType_0::VectorWholeRegisterStore            0      0.00%    100.00% # Class of committed instruction (Count)
system.cpu.commit.committedInstType_0::VectorIntegerArith            0      0.00%    100.00% # Class of committed instruction (Count)
system.cpu.commit.committedInstType_0::VectorFloatArith            0      0.00%    100.00% # Class of committed instruction (Count)
system.cpu.commit.committedInstType_0::VectorFloatConvert            0      0.00%    100.00% # Class of committed instruction (Count)
system.cpu.commit.committedInstType_0::VectorIntegerReduce            0      0.00%    100.00% # Class of committed instruction (Count)
system.cpu.commit.committedInstType_0::VectorFloatReduce            0      0.00%    100.00% # Class of committed instruction (Count)
system.cpu.commit.committedInstType_0::VectorMisc            0      0.00%    100.00% # Class of committed instruction (Count)
system.cpu.commit.committedInstType_0::VectorIntegerExtension            0      0.00%    100.00% # Class of committed instruction (Count)
system.cpu.commit.committedInstType_0::VectorConfig            0      0.00%    100.00% # Class of committed instruction (Count)
system.cpu.commit.committedInstType_0::total    241423600                       # Class of committed instruction (Count)
system.cpu.commit.commitEligibleSamples      30253310                       # number cycles where commit BW limit reached (Cycle)
system.cpu.commitStats0.numInsts            238480865                       # Number of instructions committed (thread level) (Count)
system.cpu.commitStats0.numOps              241423600                       # Number of ops (including micro ops) committed (thread level) (Count)
system.cpu.commitStats0.numInstsNotNOP      238353478                       # Number of instructions committed excluding NOPs or prefetches (Count)
system.cpu.commitStats0.numOpsNotNOP        241296213                       # Number of Ops (including micro ops) Simulated (Count)
system.cpu.commitStats0.cpi                  1.231747                       # CPI: cycles per instruction (thread level) ((Cycle/Count))
system.cpu.commitStats0.ipc                  0.811855                       # IPC: instructions per cycle (thread level) ((Count/Cycle))
system.cpu.commitStats0.numMemRefs          132465223                       # Number of memory references committed (Count)
system.cpu.commitStats0.numFpInsts                  0                       # Number of float instructions (Count)
system.cpu.commitStats0.numIntInsts         207209502                       # Number of integer instructions (Count)
system.cpu.commitStats0.numLoadInsts        100668162                       # Number of load instructions (Count)
system.cpu.commitStats0.numStoreInsts        31797061                       # Number of store instructions (Count)
system.cpu.commitStats0.numVecInsts          67963662                       # Number of vector instructions (Count)
system.cpu.commitStats0.committedInstType::No_OpClass          179      0.00%      0.00% # Class of committed instruction. (Count)
system.cpu.commitStats0.committedInstType::IntAlu     84575692     35.03%     35.03% # Class of committed instruction. (Count)
system.cpu.commitStats0.committedInstType::IntMult       637788      0.26%     35.30% # Class of committed instruction. (Count)
system.cpu.commitStats0.committedInstType::IntDiv        13838      0.01%     35.30% # Class of committed instruction. (Count)
system.cpu.commitStats0.committedInstType::FloatAdd      8504365      3.52%     38.82% # Class of committed instruction. (Count)
system.cpu.commitStats0.committedInstType::FloatCmp      2241901      0.93%     39.75% # Class of committed instruction. (Count)
system.cpu.commitStats0.committedInstType::FloatCvt       708985      0.29%     40.05% # Class of committed instruction. (Count)
system.cpu.commitStats0.committedInstType::FloatMult      7373187      3.05%     43.10% # Class of committed instruction. (Count)
system.cpu.commitStats0.committedInstType::FloatMultAcc      1114336      0.46%     43.56% # Class of committed instruction. (Count)
system.cpu.commitStats0.committedInstType::FloatDiv       200437      0.08%     43.65% # Class of committed instruction. (Count)
system.cpu.commitStats0.committedInstType::FloatMisc      1859921      0.77%     44.42% # Class of committed instruction. (Count)
system.cpu.commitStats0.committedInstType::FloatSqrt       111553      0.05%     44.46% # Class of committed instruction. (Count)
system.cpu.commitStats0.committedInstType::SimdAdd          397      0.00%     44.46% # Class of committed instruction. (Count)
system.cpu.commitStats0.committedInstType::SimdAddAcc            0      0.00%     44.46% # Class of committed instruction. (Count)
system.cpu.commitStats0.committedInstType::SimdAlu         5409      0.00%     44.46% # Class of committed instruction. (Count)
system.cpu.commitStats0.committedInstType::SimdCmp          740      0.00%     44.46% # Class of committed instruction. (Count)
system.cpu.commitStats0.committedInstType::SimdCvt      1598597      0.66%     45.13% # Class of committed instruction. (Count)
system.cpu.commitStats0.committedInstType::SimdMisc        11052      0.00%     45.13% # Class of committed instruction. (Count)
system.cpu.commitStats0.committedInstType::SimdMult            0      0.00%     45.13% # Class of committed instruction. (Count)
system.cpu.commitStats0.committedInstType::SimdMultAcc            0      0.00%     45.13% # Class of committed instruction. (Count)
system.cpu.commitStats0.committedInstType::SimdMatMultAcc            0      0.00%     45.13% # Class of committed instruction. (Count)
system.cpu.commitStats0.committedInstType::SimdShift            0      0.00%     45.13% # Class of committed instruction. (Count)
system.cpu.commitStats0.committedInstType::SimdShiftAcc            0      0.00%     45.13% # Class of committed instruction. (Count)
system.cpu.commitStats0.committedInstType::SimdDiv            0      0.00%     45.13% # Class of committed instruction. (Count)
system.cpu.commitStats0.committedInstType::SimdSqrt            0      0.00%     45.13% # Class of committed instruction. (Count)
system.cpu.commitStats0.committedInstType::SimdFloatAdd            0      0.00%     45.13% # Class of committed instruction. (Count)
system.cpu.commitStats0.committedInstType::SimdFloatAlu            0      0.00%     45.13% # Class of committed instruction. (Count)
system.cpu.commitStats0.committedInstType::SimdFloatCmp            0      0.00%     45.13% # Class of committed instruction. (Count)
system.cpu.commitStats0.committedInstType::SimdFloatCvt            0      0.00%     45.13% # Class of committed instruction. (Count)
system.cpu.commitStats0.committedInstType::SimdFloatDiv            0      0.00%     45.13% # Class of committed instruction. (Count)
system.cpu.commitStats0.committedInstType::SimdFloatMisc            0      0.00%     45.13% # Class of committed instruction. (Count)
system.cpu.commitStats0.committedInstType::SimdFloatMult            0      0.00%     45.13% # Class of committed instruction. (Count)
system.cpu.commitStats0.committedInstType::SimdFloatMultAcc            0      0.00%     45.13% # Class of committed instruction. (Count)
system.cpu.commitStats0.committedInstType::SimdFloatMatMultAcc            0      0.00%     45.13% # Class of committed instruction. (Count)
system.cpu.commitStats0.committedInstType::SimdFloatSqrt            0      0.00%     45.13% # Class of committed instruction. (Count)
system.cpu.commitStats0.committedInstType::SimdReduceAdd            0      0.00%     45.13% # Class of committed instruction. (Count)
system.cpu.commitStats0.committedInstType::SimdReduceAlu            0      0.00%     45.13% # Class of committed instruction. (Count)
system.cpu.commitStats0.committedInstType::SimdReduceCmp            0      0.00%     45.13% # Class of committed instruction. (Count)
system.cpu.commitStats0.committedInstType::SimdFloatReduceAdd            0      0.00%     45.13% # Class of committed instruction. (Count)
system.cpu.commitStats0.committedInstType::SimdFloatReduceCmp            0      0.00%     45.13% # Class of committed instruction. (Count)
system.cpu.commitStats0.committedInstType::SimdAes            0      0.00%     45.13% # Class of committed instruction. (Count)
system.cpu.commitStats0.committedInstType::SimdAesMix            0      0.00%     45.13% # Class of committed instruction. (Count)
system.cpu.commitStats0.committedInstType::SimdSha1Hash            0      0.00%     45.13% # Class of committed instruction. (Count)
system.cpu.commitStats0.committedInstType::SimdSha1Hash2            0      0.00%     45.13% # Class of committed instruction. (Count)
system.cpu.commitStats0.committedInstType::SimdSha256Hash            0      0.00%     45.13% # Class of committed instruction. (Count)
system.cpu.commitStats0.committedInstType::SimdSha256Hash2            0      0.00%     45.13% # Class of committed instruction. (Count)
system.cpu.commitStats0.committedInstType::SimdShaSigma2            0      0.00%     45.13% # Class of committed instruction. (Count)
system.cpu.commitStats0.committedInstType::SimdShaSigma3            0      0.00%     45.13% # Class of committed instruction. (Count)
system.cpu.commitStats0.committedInstType::SimdPredAlu            0      0.00%     45.13% # Class of committed instruction. (Count)
system.cpu.commitStats0.committedInstType::Matrix            0      0.00%     45.13% # Class of committed instruction. (Count)
system.cpu.commitStats0.committedInstType::MatrixMov            0      0.00%     45.13% # Class of committed instruction. (Count)
system.cpu.commitStats0.committedInstType::MatrixOP            0      0.00%     45.13% # Class of committed instruction. (Count)
system.cpu.commitStats0.committedInstType::MemRead    100668162     41.70%     86.83% # Class of committed instruction. (Count)
system.cpu.commitStats0.committedInstType::MemWrite     31797061     13.17%    100.00% # Class of committed instruction. (Count)
system.cpu.commitStats0.committedInstType::FloatMemRead            0      0.00%    100.00% # Class of committed instruction. (Count)
system.cpu.commitStats0.committedInstType::FloatMemWrite            0      0.00%    100.00% # Class of committed instruction. (Count)
system.cpu.commitStats0.committedInstType::IprAccess            0      0.00%    100.00% # Class of committed instruction. (Count)
system.cpu.commitStats0.committedInstType::InstPrefetch            0      0.00%    100.00% # Class of committed instruction. (Count)
system.cpu.commitStats0.committedInstType::VectorUnitStrideLoad            0      0.00%    100.00% # Class of committed instruction. (Count)
system.cpu.commitStats0.committedInstType::VectorUnitStrideStore            0      0.00%    100.00% # Class of committed instruction. (Count)
system.cpu.commitStats0.committedInstType::VectorUnitStrideMaskLoad            0      0.00%    100.00% # Class of committed instruction. (Count)
system.cpu.commitStats0.committedInstType::VectorUnitStrideMaskStore            0      0.00%    100.00% # Class of committed instruction. (Count)
system.cpu.commitStats0.committedInstType::VectorStridedLoad            0      0.00%    100.00% # Class of committed instruction. (Count)
system.cpu.commitStats0.committedInstType::VectorStridedStore            0      0.00%    100.00% # Class of committed instruction. (Count)
system.cpu.commitStats0.committedInstType::VectorIndexedLoad            0      0.00%    100.00% # Class of committed instruction. (Count)
system.cpu.commitStats0.committedInstType::VectorIndexedStore            0      0.00%    100.00% # Class of committed instruction. (Count)
system.cpu.commitStats0.committedInstType::VectorUnitStrideFaultOnlyFirstLoad            0      0.00%    100.00% # Class of committed instruction. (Count)
system.cpu.commitStats0.committedInstType::VectorWholeRegisterLoad            0      0.00%    100.00% # Class of committed instruction. (Count)
system.cpu.commitStats0.committedInstType::VectorWholeRegisterStore            0      0.00%    100.00% # Class of committed instruction. (Count)
system.cpu.commitStats0.committedInstType::VectorIntegerArith            0      0.00%    100.00% # Class of committed instruction. (Count)
system.cpu.commitStats0.committedInstType::VectorFloatArith            0      0.00%    100.00% # Class of committed instruction. (Count)
system.cpu.commitStats0.committedInstType::VectorFloatConvert            0      0.00%    100.00% # Class of committed instruction. (Count)
system.cpu.commitStats0.committedInstType::VectorIntegerReduce            0      0.00%    100.00% # Class of committed instruction. (Count)
system.cpu.commitStats0.committedInstType::VectorFloatReduce            0      0.00%    100.00% # Class of committed instruction. (Count)
system.cpu.commitStats0.committedInstType::VectorMisc            0      0.00%    100.00% # Class of committed instruction. (Count)
system.cpu.commitStats0.committedInstType::VectorIntegerExtension            0      0.00%    100.00% # Class of committed instruction. (Count)
system.cpu.commitStats0.committedInstType::VectorConfig            0      0.00%    100.00% # Class of committed instruction. (Count)
system.cpu.commitStats0.committedInstType::total    241423600                       # Class of committed instruction. (Count)
system.cpu.commitStats0.committedControl::IsControl     12451901                       # Class of control type instructions committed (Count)
system.cpu.commitStats0.committedControl::IsDirectControl     11848154                       # Class of control type instructions committed (Count)
system.cpu.commitStats0.committedControl::IsIndirectControl       603747                       # Class of control type instructions committed (Count)
system.cpu.commitStats0.committedControl::IsCondControl     10645779                       # Class of control type instructions committed (Count)
system.cpu.commitStats0.committedControl::IsUncondControl      1806122                       # Class of control type instructions committed (Count)
system.cpu.commitStats0.committedControl::IsCall       562498                       # Class of control type instructions committed (Count)
system.cpu.commitStats0.committedControl::IsReturn       562494                       # Class of control type instructions committed (Count)
system.cpu.dcache.demandHits::cpu.data      113874519                       # number of demand (read+write) hits (Count)
system.cpu.dcache.demandHits::total         113874519                       # number of demand (read+write) hits (Count)
system.cpu.dcache.overallHits::cpu.data     113876850                       # number of overall hits (Count)
system.cpu.dcache.overallHits::total        113876850                       # number of overall hits (Count)
system.cpu.dcache.demandMisses::cpu.data       179553                       # number of demand (read+write) misses (Count)
system.cpu.dcache.demandMisses::total          179553                       # number of demand (read+write) misses (Count)
system.cpu.dcache.overallMisses::cpu.data       179636                       # number of overall misses (Count)
system.cpu.dcache.overallMisses::total         179636                       # number of overall misses (Count)
system.cpu.dcache.demandMissLatency::cpu.data   4386112461                       # number of demand (read+write) miss ticks (Tick)
system.cpu.dcache.demandMissLatency::total   4386112461                       # number of demand (read+write) miss ticks (Tick)
system.cpu.dcache.overallMissLatency::cpu.data   4386112461                       # number of overall miss ticks (Tick)
system.cpu.dcache.overallMissLatency::total   4386112461                       # number of overall miss ticks (Tick)
system.cpu.dcache.demandAccesses::cpu.data    114054072                       # number of demand (read+write) accesses (Count)
system.cpu.dcache.demandAccesses::total     114054072                       # number of demand (read+write) accesses (Count)
system.cpu.dcache.overallAccesses::cpu.data    114056486                       # number of overall (read+write) accesses (Count)
system.cpu.dcache.overallAccesses::total    114056486                       # number of overall (read+write) accesses (Count)
system.cpu.dcache.demandMissRate::cpu.data     0.001574                       # miss rate for demand accesses (Ratio)
system.cpu.dcache.demandMissRate::total      0.001574                       # miss rate for demand accesses (Ratio)
system.cpu.dcache.overallMissRate::cpu.data     0.001575                       # miss rate for overall accesses (Ratio)
system.cpu.dcache.overallMissRate::total     0.001575                       # miss rate for overall accesses (Ratio)
system.cpu.dcache.demandAvgMissLatency::cpu.data 24427.954203                       # average overall miss latency in ticks ((Tick/Count))
system.cpu.dcache.demandAvgMissLatency::total 24427.954203                       # average overall miss latency in ticks ((Tick/Count))
system.cpu.dcache.overallAvgMissLatency::cpu.data 24416.667377                       # average overall miss latency ((Tick/Count))
system.cpu.dcache.overallAvgMissLatency::total 24416.667377                       # average overall miss latency ((Tick/Count))
system.cpu.dcache.blockedCycles::no_mshrs       154981                       # number of cycles access was blocked (Cycle)
system.cpu.dcache.blockedCycles::no_targets          433                       # number of cycles access was blocked (Cycle)
system.cpu.dcache.blockedCauses::no_mshrs        28193                       # number of times access was blocked (Count)
system.cpu.dcache.blockedCauses::no_targets            1                       # number of times access was blocked (Count)
system.cpu.dcache.avgBlocked::no_mshrs       5.497145                       # average number of cycles each access was blocked ((Cycle/Count))
system.cpu.dcache.avgBlocked::no_targets          433                       # average number of cycles each access was blocked ((Cycle/Count))
system.cpu.dcache.writebacks::writebacks       102046                       # number of writebacks (Count)
system.cpu.dcache.writebacks::total            102046                       # number of writebacks (Count)
system.cpu.dcache.demandMshrHits::cpu.data        88344                       # number of demand (read+write) MSHR hits (Count)
system.cpu.dcache.demandMshrHits::total         88344                       # number of demand (read+write) MSHR hits (Count)
system.cpu.dcache.overallMshrHits::cpu.data        88344                       # number of overall MSHR hits (Count)
system.cpu.dcache.overallMshrHits::total        88344                       # number of overall MSHR hits (Count)
system.cpu.dcache.demandMshrMisses::cpu.data        91209                       # number of demand (read+write) MSHR misses (Count)
system.cpu.dcache.demandMshrMisses::total        91209                       # number of demand (read+write) MSHR misses (Count)
system.cpu.dcache.overallMshrMisses::cpu.data        91292                       # number of overall MSHR misses (Count)
system.cpu.dcache.overallMshrMisses::cpu.dcache.prefetcher        22145                       # number of overall MSHR misses (Count)
system.cpu.dcache.overallMshrMisses::total       113437                       # number of overall MSHR misses (Count)
system.cpu.dcache.demandMshrMissLatency::cpu.data   2357482358                       # number of demand (read+write) MSHR miss ticks (Tick)
system.cpu.dcache.demandMshrMissLatency::total   2357482358                       # number of demand (read+write) MSHR miss ticks (Tick)
system.cpu.dcache.overallMshrMissLatency::cpu.data   2358741854                       # number of overall MSHR miss ticks (Tick)
system.cpu.dcache.overallMshrMissLatency::cpu.dcache.prefetcher    498135682                       # number of overall MSHR miss ticks (Tick)
system.cpu.dcache.overallMshrMissLatency::total   2856877536                       # number of overall MSHR miss ticks (Tick)
system.cpu.dcache.demandMshrMissRate::cpu.data     0.000800                       # mshr miss ratio for demand accesses (Ratio)
system.cpu.dcache.demandMshrMissRate::total     0.000800                       # mshr miss ratio for demand accesses (Ratio)
system.cpu.dcache.overallMshrMissRate::cpu.data     0.000800                       # mshr miss ratio for overall accesses (Ratio)
system.cpu.dcache.overallMshrMissRate::cpu.dcache.prefetcher          inf                       # mshr miss ratio for overall accesses (Ratio)
system.cpu.dcache.overallMshrMissRate::total     0.000995                       # mshr miss ratio for overall accesses (Ratio)
system.cpu.dcache.demandAvgMshrMissLatency::cpu.data 25847.036564                       # average overall mshr miss latency ((Tick/Count))
system.cpu.dcache.demandAvgMshrMissLatency::total 25847.036564                       # average overall mshr miss latency ((Tick/Count))
system.cpu.dcache.overallAvgMshrMissLatency::cpu.data 25837.333545                       # average overall mshr miss latency ((Tick/Count))
system.cpu.dcache.overallAvgMshrMissLatency::cpu.dcache.prefetcher 22494.273290                       # average overall mshr miss latency ((Tick/Count))
system.cpu.dcache.overallAvgMshrMissLatency::total 25184.706366                       # average overall mshr miss latency ((Tick/Count))
system.cpu.dcache.replacements                 111978                       # number of replacements (Count)
system.cpu.dcache.HardPFReq.mshrMisses::cpu.dcache.prefetcher        22145                       # number of HardPFReq MSHR misses (Count)
system.cpu.dcache.HardPFReq.mshrMisses::total        22145                       # number of HardPFReq MSHR misses (Count)
system.cpu.dcache.HardPFReq.mshrMissLatency::cpu.dcache.prefetcher    498135682                       # number of HardPFReq MSHR miss ticks (Tick)
system.cpu.dcache.HardPFReq.mshrMissLatency::total    498135682                       # number of HardPFReq MSHR miss ticks (Tick)
system.cpu.dcache.HardPFReq.mshrMissRate::cpu.dcache.prefetcher          inf                       # mshr miss rate for HardPFReq accesses (Ratio)
system.cpu.dcache.HardPFReq.mshrMissRate::total          inf                       # mshr miss rate for HardPFReq accesses (Ratio)
system.cpu.dcache.HardPFReq.avgMshrMissLatency::cpu.dcache.prefetcher 22494.273290                       # average HardPFReq mshr miss latency ((Tick/Count))
system.cpu.dcache.HardPFReq.avgMshrMissLatency::total 22494.273290                       # average HardPFReq mshr miss latency ((Tick/Count))
system.cpu.dcache.LoadLockedReq.hits::cpu.data          318                       # number of LoadLockedReq hits (Count)
system.cpu.dcache.LoadLockedReq.hits::total          318                       # number of LoadLockedReq hits (Count)
system.cpu.dcache.LoadLockedReq.misses::cpu.data           52                       # number of LoadLockedReq misses (Count)
system.cpu.dcache.LoadLockedReq.misses::total           52                       # number of LoadLockedReq misses (Count)
system.cpu.dcache.LoadLockedReq.missLatency::cpu.data       751604                       # number of LoadLockedReq miss ticks (Tick)
system.cpu.dcache.LoadLockedReq.missLatency::total       751604                       # number of LoadLockedReq miss ticks (Tick)
system.cpu.dcache.LoadLockedReq.accesses::cpu.data          370                       # number of LoadLockedReq accesses(hits+misses) (Count)
system.cpu.dcache.LoadLockedReq.accesses::total          370                       # number of LoadLockedReq accesses(hits+misses) (Count)
system.cpu.dcache.LoadLockedReq.missRate::cpu.data     0.140541                       # miss rate for LoadLockedReq accesses (Ratio)
system.cpu.dcache.LoadLockedReq.missRate::total     0.140541                       # miss rate for LoadLockedReq accesses (Ratio)
system.cpu.dcache.LoadLockedReq.avgMissLatency::cpu.data 14453.923077                       # average LoadLockedReq miss latency ((Tick/Count))
system.cpu.dcache.LoadLockedReq.avgMissLatency::total 14453.923077                       # average LoadLockedReq miss latency ((Tick/Count))
system.cpu.dcache.LoadLockedReq.mshrHits::cpu.data           46                       # number of LoadLockedReq MSHR hits (Count)
system.cpu.dcache.LoadLockedReq.mshrHits::total           46                       # number of LoadLockedReq MSHR hits (Count)
system.cpu.dcache.LoadLockedReq.mshrMisses::cpu.data            6                       # number of LoadLockedReq MSHR misses (Count)
system.cpu.dcache.LoadLockedReq.mshrMisses::total            6                       # number of LoadLockedReq MSHR misses (Count)
system.cpu.dcache.LoadLockedReq.mshrMissLatency::cpu.data       347480                       # number of LoadLockedReq MSHR miss ticks (Tick)
system.cpu.dcache.LoadLockedReq.mshrMissLatency::total       347480                       # number of LoadLockedReq MSHR miss ticks (Tick)
system.cpu.dcache.LoadLockedReq.mshrMissRate::cpu.data     0.016216                       # mshr miss rate for LoadLockedReq accesses (Ratio)
system.cpu.dcache.LoadLockedReq.mshrMissRate::total     0.016216                       # mshr miss rate for LoadLockedReq accesses (Ratio)
system.cpu.dcache.LoadLockedReq.avgMshrMissLatency::cpu.data 57913.333333                       # average LoadLockedReq mshr miss latency ((Tick/Count))
system.cpu.dcache.LoadLockedReq.avgMshrMissLatency::total 57913.333333                       # average LoadLockedReq mshr miss latency ((Tick/Count))
system.cpu.dcache.ReadReq.hits::cpu.data     82212141                       # number of ReadReq hits (Count)
system.cpu.dcache.ReadReq.hits::total        82212141                       # number of ReadReq hits (Count)
system.cpu.dcache.ReadReq.misses::cpu.data        44488                       # number of ReadReq misses (Count)
system.cpu.dcache.ReadReq.misses::total         44488                       # number of ReadReq misses (Count)
system.cpu.dcache.ReadReq.missLatency::cpu.data    696100020                       # number of ReadReq miss ticks (Tick)
system.cpu.dcache.ReadReq.missLatency::total    696100020                       # number of ReadReq miss ticks (Tick)
system.cpu.dcache.ReadReq.accesses::cpu.data     82256629                       # number of ReadReq accesses(hits+misses) (Count)
system.cpu.dcache.ReadReq.accesses::total     82256629                       # number of ReadReq accesses(hits+misses) (Count)
system.cpu.dcache.ReadReq.missRate::cpu.data     0.000541                       # miss rate for ReadReq accesses (Ratio)
system.cpu.dcache.ReadReq.missRate::total     0.000541                       # miss rate for ReadReq accesses (Ratio)
system.cpu.dcache.ReadReq.avgMissLatency::cpu.data 15646.916472                       # average ReadReq miss latency ((Tick/Count))
system.cpu.dcache.ReadReq.avgMissLatency::total 15646.916472                       # average ReadReq miss latency ((Tick/Count))
system.cpu.dcache.ReadReq.mshrHits::cpu.data        13812                       # number of ReadReq MSHR hits (Count)
system.cpu.dcache.ReadReq.mshrHits::total        13812                       # number of ReadReq MSHR hits (Count)
system.cpu.dcache.ReadReq.mshrMisses::cpu.data        30676                       # number of ReadReq MSHR misses (Count)
system.cpu.dcache.ReadReq.mshrMisses::total        30676                       # number of ReadReq MSHR misses (Count)
system.cpu.dcache.ReadReq.mshrMissLatency::cpu.data    364992516                       # number of ReadReq MSHR miss ticks (Tick)
system.cpu.dcache.ReadReq.mshrMissLatency::total    364992516                       # number of ReadReq MSHR miss ticks (Tick)
system.cpu.dcache.ReadReq.mshrMissRate::cpu.data     0.000373                       # mshr miss rate for ReadReq accesses (Ratio)
system.cpu.dcache.ReadReq.mshrMissRate::total     0.000373                       # mshr miss rate for ReadReq accesses (Ratio)
system.cpu.dcache.ReadReq.avgMshrMissLatency::cpu.data 11898.308645                       # average ReadReq mshr miss latency ((Tick/Count))
system.cpu.dcache.ReadReq.avgMshrMissLatency::total 11898.308645                       # average ReadReq mshr miss latency ((Tick/Count))
system.cpu.dcache.SoftPFReq.hits::cpu.data         2331                       # number of SoftPFReq hits (Count)
system.cpu.dcache.SoftPFReq.hits::total          2331                       # number of SoftPFReq hits (Count)
system.cpu.dcache.SoftPFReq.misses::cpu.data           83                       # number of SoftPFReq misses (Count)
system.cpu.dcache.SoftPFReq.misses::total           83                       # number of SoftPFReq misses (Count)
system.cpu.dcache.SoftPFReq.accesses::cpu.data         2414                       # number of SoftPFReq accesses(hits+misses) (Count)
system.cpu.dcache.SoftPFReq.accesses::total         2414                       # number of SoftPFReq accesses(hits+misses) (Count)
system.cpu.dcache.SoftPFReq.missRate::cpu.data     0.034383                       # miss rate for SoftPFReq accesses (Ratio)
system.cpu.dcache.SoftPFReq.missRate::total     0.034383                       # miss rate for SoftPFReq accesses (Ratio)
system.cpu.dcache.SoftPFReq.mshrMisses::cpu.data           83                       # number of SoftPFReq MSHR misses (Count)
system.cpu.dcache.SoftPFReq.mshrMisses::total           83                       # number of SoftPFReq MSHR misses (Count)
system.cpu.dcache.SoftPFReq.mshrMissLatency::cpu.data      1259496                       # number of SoftPFReq MSHR miss ticks (Tick)
system.cpu.dcache.SoftPFReq.mshrMissLatency::total      1259496                       # number of SoftPFReq MSHR miss ticks (Tick)
system.cpu.dcache.SoftPFReq.mshrMissRate::cpu.data     0.034383                       # mshr miss rate for SoftPFReq accesses (Ratio)
system.cpu.dcache.SoftPFReq.mshrMissRate::total     0.034383                       # mshr miss rate for SoftPFReq accesses (Ratio)
system.cpu.dcache.SoftPFReq.avgMshrMissLatency::cpu.data 15174.650602                       # average SoftPFReq mshr miss latency ((Tick/Count))
system.cpu.dcache.SoftPFReq.avgMshrMissLatency::total 15174.650602                       # average SoftPFReq mshr miss latency ((Tick/Count))
system.cpu.dcache.StoreCondReq.hits::cpu.data          312                       # number of StoreCondReq hits (Count)
system.cpu.dcache.StoreCondReq.hits::total          312                       # number of StoreCondReq hits (Count)
system.cpu.dcache.StoreCondReq.misses::cpu.data            2                       # number of StoreCondReq misses (Count)
system.cpu.dcache.StoreCondReq.misses::total            2                       # number of StoreCondReq misses (Count)
system.cpu.dcache.StoreCondReq.missLatency::cpu.data        18088                       # number of StoreCondReq miss ticks (Tick)
system.cpu.dcache.StoreCondReq.missLatency::total        18088                       # number of StoreCondReq miss ticks (Tick)
system.cpu.dcache.StoreCondReq.accesses::cpu.data          314                       # number of StoreCondReq accesses(hits+misses) (Count)
system.cpu.dcache.StoreCondReq.accesses::total          314                       # number of StoreCondReq accesses(hits+misses) (Count)
system.cpu.dcache.StoreCondReq.missRate::cpu.data     0.006369                       # miss rate for StoreCondReq accesses (Ratio)
system.cpu.dcache.StoreCondReq.missRate::total     0.006369                       # miss rate for StoreCondReq accesses (Ratio)
system.cpu.dcache.StoreCondReq.avgMissLatency::cpu.data         9044                       # average StoreCondReq miss latency ((Tick/Count))
system.cpu.dcache.StoreCondReq.avgMissLatency::total         9044                       # average StoreCondReq miss latency ((Tick/Count))
system.cpu.dcache.StoreCondReq.mshrMisses::cpu.data            2                       # number of StoreCondReq MSHR misses (Count)
system.cpu.dcache.StoreCondReq.mshrMisses::total            2                       # number of StoreCondReq MSHR misses (Count)
system.cpu.dcache.StoreCondReq.mshrMissLatency::cpu.data        14280                       # number of StoreCondReq MSHR miss ticks (Tick)
system.cpu.dcache.StoreCondReq.mshrMissLatency::total        14280                       # number of StoreCondReq MSHR miss ticks (Tick)
system.cpu.dcache.StoreCondReq.mshrMissRate::cpu.data     0.006369                       # mshr miss rate for StoreCondReq accesses (Ratio)
system.cpu.dcache.StoreCondReq.mshrMissRate::total     0.006369                       # mshr miss rate for StoreCondReq accesses (Ratio)
system.cpu.dcache.StoreCondReq.avgMshrMissLatency::cpu.data         7140                       # average StoreCondReq mshr miss latency ((Tick/Count))
system.cpu.dcache.StoreCondReq.avgMshrMissLatency::total         7140                       # average StoreCondReq mshr miss latency ((Tick/Count))
system.cpu.dcache.WriteLineReq.hits::cpu.data        17408                       # number of WriteLineReq hits (Count)
system.cpu.dcache.WriteLineReq.hits::total        17408                       # number of WriteLineReq hits (Count)
system.cpu.dcache.WriteLineReq.misses::cpu.data        31821                       # number of WriteLineReq misses (Count)
system.cpu.dcache.WriteLineReq.misses::total        31821                       # number of WriteLineReq misses (Count)
system.cpu.dcache.WriteLineReq.missLatency::cpu.data   1774586571                       # number of WriteLineReq miss ticks (Tick)
system.cpu.dcache.WriteLineReq.missLatency::total   1774586571                       # number of WriteLineReq miss ticks (Tick)
system.cpu.dcache.WriteLineReq.accesses::cpu.data        49229                       # number of WriteLineReq accesses(hits+misses) (Count)
system.cpu.dcache.WriteLineReq.accesses::total        49229                       # number of WriteLineReq accesses(hits+misses) (Count)
system.cpu.dcache.WriteLineReq.missRate::cpu.data     0.646387                       # miss rate for WriteLineReq accesses (Ratio)
system.cpu.dcache.WriteLineReq.missRate::total     0.646387                       # miss rate for WriteLineReq accesses (Ratio)
system.cpu.dcache.WriteLineReq.avgMissLatency::cpu.data 55767.781371                       # average WriteLineReq miss latency ((Tick/Count))
system.cpu.dcache.WriteLineReq.avgMissLatency::total 55767.781371                       # average WriteLineReq miss latency ((Tick/Count))
system.cpu.dcache.WriteLineReq.mshrHits::cpu.data         1637                       # number of WriteLineReq MSHR hits (Count)
system.cpu.dcache.WriteLineReq.mshrHits::total         1637                       # number of WriteLineReq MSHR hits (Count)
system.cpu.dcache.WriteLineReq.mshrMisses::cpu.data        30184                       # number of WriteLineReq MSHR misses (Count)
system.cpu.dcache.WriteLineReq.mshrMisses::total        30184                       # number of WriteLineReq MSHR misses (Count)
system.cpu.dcache.WriteLineReq.mshrMissLatency::cpu.data   1544220185                       # number of WriteLineReq MSHR miss ticks (Tick)
system.cpu.dcache.WriteLineReq.mshrMissLatency::total   1544220185                       # number of WriteLineReq MSHR miss ticks (Tick)
system.cpu.dcache.WriteLineReq.mshrMissRate::cpu.data     0.613135                       # mshr miss rate for WriteLineReq accesses (Ratio)
system.cpu.dcache.WriteLineReq.mshrMissRate::total     0.613135                       # mshr miss rate for WriteLineReq accesses (Ratio)
system.cpu.dcache.WriteLineReq.avgMshrMissLatency::cpu.data 51160.223463                       # average WriteLineReq mshr miss latency ((Tick/Count))
system.cpu.dcache.WriteLineReq.avgMshrMissLatency::total 51160.223463                       # average WriteLineReq mshr miss latency ((Tick/Count))
system.cpu.dcache.WriteReq.hits::cpu.data     31644970                       # number of WriteReq hits (Count)
system.cpu.dcache.WriteReq.hits::total       31644970                       # number of WriteReq hits (Count)
[...]
system.mem_ctrl.dram.numReads::total            10761                       # Number of read requests responded to by this memory (Count)
system.mem_ctrl.dram.numWrites::writebacks        20239                       # Number of write requests responded to by this memory (Count)
system.mem_ctrl.dram.numWrites::total           20239                       # Number of write requests responded to by this memory (Count)
system.mem_ctrl.dram.bwRead::cpu.inst         1825380                       # Total read bandwidth from this memory ((Byte/Second))
system.mem_ctrl.dram.bwRead::cpu.data         1327383                       # Total read bandwidth from this memory ((Byte/Second))
system.mem_ctrl.dram.bwRead::cpu.dcache.prefetcher       848609                       # Total read bandwidth from this memory ((Byte/Second))
system.mem_ctrl.dram.bwRead::cpu.l2cache.prefetcher       924133                       # Total read bandwidth from this memory ((Byte/Second))
system.mem_ctrl.dram.bwRead::total            4925505                       # Total read bandwidth from this memory ((Byte/Second))
system.mem_ctrl.dram.bwInstRead::cpu.inst      1825380                       # Instruction read bandwidth from this memory ((Byte/Second))
system.mem_ctrl.dram.bwInstRead::total        1825380                       # Instruction read bandwidth from this memory ((Byte/Second))
system.mem_ctrl.dram.bwWrite::writebacks      9263757                       # Write bandwidth from this memory ((Byte/Second))
system.mem_ctrl.dram.bwWrite::total           9263757                       # Write bandwidth from this memory ((Byte/Second))
system.mem_ctrl.dram.bwTotal::writebacks      9263757                       # Total bandwidth to/from this memory ((Byte/Second))
system.mem_ctrl.dram.bwTotal::cpu.inst        1825380                       # Total bandwidth to/from this memory ((Byte/Second))
system.mem_ctrl.dram.bwTotal::cpu.data        1327383                       # Total bandwidth to/from this memory ((Byte/Second))
system.mem_ctrl.dram.bwTotal::cpu.dcache.prefetcher       848609                       # Total bandwidth to/from this memory ((Byte/Second))
system.mem_ctrl.dram.bwTotal::cpu.l2cache.prefetcher       924133                       # Total bandwidth to/from this memory ((Byte/Second))
system.mem_ctrl.dram.bwTotal::total          14189262                       # Total bandwidth to/from this memory ((Byte/Second))
system.mem_ctrl.dram.readBursts                 10761                       # Number of DRAM read bursts (Count)
system.mem_ctrl.dram.writeBursts                20217                       # Number of DRAM write bursts (Count)
system.mem_ctrl.dram.perBankRdBursts::0           704                       # Per bank write bursts (Count)
system.mem_ctrl.dram.perBankRdBursts::1           988                       # Per bank write bursts (Count)
system.mem_ctrl.dram.perBankRdBursts::2           779                       # Per bank write bursts (Count)
system.mem_ctrl.dram.perBankRdBursts::3           534                       # Per bank write bursts (Count)
system.mem_ctrl.dram.perBankRdBursts::4           633                       # Per bank write bursts (Count)
system.mem_ctrl.dram.perBankRdBursts::5           514                       # Per bank write bursts (Count)
system.mem_ctrl.dram.perBankRdBursts::6           710                       # Per bank write bursts (Count)
system.mem_ctrl.dram.perBankRdBursts::7           634                       # Per bank write bursts (Count)
system.mem_ctrl.dram.perBankRdBursts::8           636                       # Per bank write bursts (Count)
system.mem_ctrl.dram.perBankRdBursts::9           524                       # Per bank write bursts (Count)
system.mem_ctrl.dram.perBankRdBursts::10          782                       # Per bank write bursts (Count)
system.mem_ctrl.dram.perBankRdBursts::11          606                       # Per bank write bursts (Count)
system.mem_ctrl.dram.perBankRdBursts::12          663                       # Per bank write bursts (Count)
system.mem_ctrl.dram.perBankRdBursts::13          598                       # Per bank write bursts (Count)
system.mem_ctrl.dram.perBankRdBursts::14          666                       # Per bank write bursts (Count)
system.mem_ctrl.dram.perBankRdBursts::15          790                       # Per bank write bursts (Count)
system.mem_ctrl.dram.perBankWrBursts::0          1198                       # Per bank write bursts (Count)
system.mem_ctrl.dram.perBankWrBursts::1          1280                       # Per bank write bursts (Count)
system.mem_ctrl.dram.perBankWrBursts::2          1298                       # Per bank write bursts (Count)
system.mem_ctrl.dram.perBankWrBursts::3          1102                       # Per bank write bursts (Count)
system.mem_ctrl.dram.perBankWrBursts::4          1191                       # Per bank write bursts (Count)
system.mem_ctrl.dram.perBankWrBursts::5          1142                       # Per bank write bursts (Count)
system.mem_ctrl.dram.perBankWrBursts::6          1324                       # Per bank write bursts (Count)
system.mem_ctrl.dram.perBankWrBursts::7          1381                       # Per bank write bursts (Count)
system.mem_ctrl.dram.perBankWrBursts::8          1276                       # Per bank write bursts (Count)
system.mem_ctrl.dram.perBankWrBursts::9          1452                       # Per bank write bursts (Count)
system.mem_ctrl.dram.perBankWrBursts::10         1383                       # Per bank write bursts (Count)
system.mem_ctrl.dram.perBankWrBursts::11         1190                       # Per bank write bursts (Count)
system.mem_ctrl.dram.perBankWrBursts::12         1262                       # Per bank write bursts (Count)
system.mem_ctrl.dram.perBankWrBursts::13         1147                       # Per bank write bursts (Count)
system.mem_ctrl.dram.perBankWrBursts::14         1279                       # Per bank write bursts (Count)
system.mem_ctrl.dram.perBankWrBursts::15         1312                       # Per bank write bursts (Count)
system.mem_ctrl.dram.totQLat                389627620                       # Total ticks spent queuing (Tick)
system.mem_ctrl.dram.totBusLat               53805000                       # Total ticks spent in databus transfers (Tick)
system.mem_ctrl.dram.totMemAccLat           591396370                       # Total ticks spent from burst creation until serviced by the DRAM (Tick)
system.mem_ctrl.dram.avgQLat                 36207.38                       # Average queueing delay per DRAM burst ((Tick/Count))
system.mem_ctrl.dram.avgBusLat                5000.00                       # Average bus latency per DRAM burst ((Tick/Count))
system.mem_ctrl.dram.avgMemAccLat            54957.38                       # Average memory access latency per DRAM burst ((Tick/Count))
system.mem_ctrl.dram.readRowHits                 8295                       # Number of row buffer hits during reads (Count)
system.mem_ctrl.dram.writeRowHits               14516                       # Number of row buffer hits during writes (Count)
system.mem_ctrl.dram.readRowHitRate             77.08                       # Row buffer hit rate for reads (Ratio)
system.mem_ctrl.dram.writeRowHitRate            71.80                       # Row buffer hit rate for writes (Ratio)
system.mem_ctrl.dram.bytesPerActivate::samples         8157                       # Bytes accessed per row activation (Byte)
system.mem_ctrl.dram.bytesPerActivate::mean   242.865759                       # Bytes accessed per row activation (Byte)
system.mem_ctrl.dram.bytesPerActivate::gmean   166.178881                       # Bytes accessed per row activation (Byte)
system.mem_ctrl.dram.bytesPerActivate::stdev   232.438497                       # Bytes accessed per row activation (Byte)
system.mem_ctrl.dram.bytesPerActivate::0-127         2766     33.91%     33.91% # Bytes accessed per row activation (Byte)
system.mem_ctrl.dram.bytesPerActivate::128-255         2375     29.12%     63.03% # Bytes accessed per row activation (Byte)
system.mem_ctrl.dram.bytesPerActivate::256-383         1233     15.12%     78.14% # Bytes accessed per row activation (Byte)
system.mem_ctrl.dram.bytesPerActivate::384-511          681      8.35%     86.49% # Bytes accessed per row activation (Byte)
system.mem_ctrl.dram.bytesPerActivate::512-639          438      5.37%     91.86% # Bytes accessed per row activation (Byte)
system.mem_ctrl.dram.bytesPerActivate::640-767          202      2.48%     94.34% # Bytes accessed per row activation (Byte)
system.mem_ctrl.dram.bytesPerActivate::768-895          121      1.48%     95.82% # Bytes accessed per row activation (Byte)
system.mem_ctrl.dram.bytesPerActivate::896-1023           89      1.09%     96.91% # Bytes accessed per row activation (Byte)
system.mem_ctrl.dram.bytesPerActivate::1024-1151          252      3.09%    100.00% # Bytes accessed per row activation (Byte)
system.mem_ctrl.dram.bytesPerActivate::total         8157                       # Bytes accessed per row activation (Byte)
system.mem_ctrl.dram.bytesRead                 688704                       # Total bytes read (Byte)
system.mem_ctrl.dram.bytesWritten             1293888                       # Total bytes written (Byte)
system.mem_ctrl.dram.avgRdBW                 4.925505                       # Average DRAM read bandwidth in MiBytes/s ((Byte/Second))
system.mem_ctrl.dram.avgWrBW                 9.253687                       # Average DRAM write bandwidth in MiBytes/s ((Byte/Second))
system.mem_ctrl.dram.peakBW                  12800.00                       # Theoretical peak bandwidth in MiByte/s ((Byte/Second))
system.mem_ctrl.dram.busUtil                     0.11                       # Data bus utilization in percentage (Ratio)
system.mem_ctrl.dram.busUtilRead                 0.04                       # Data bus utilization in percentage for reads (Ratio)
system.mem_ctrl.dram.busUtilWrite                0.07                       # Data bus utilization in percentage for writes (Ratio)
system.mem_ctrl.dram.pageHitRate                73.64                       # Row buffer hit rate, read and write combined (Ratio)
system.mem_ctrl.dram.power_state.pwrStateResidencyTicks::UNDEFINED 139824047048                       # Cumulative time (in ticks) in various power states (Tick)
system.mem_ctrl.dram.rank0.actEnergy         30494940                       # Energy for activate commands per rank (pJ) (Joule)
system.mem_ctrl.dram.rank0.preEnergy         16181880                       # Energy for precharge commands per rank (pJ) (Joule)
system.mem_ctrl.dram.rank0.readEnergy        39241440                       # Energy for read commands per rank (pJ) (Joule)
system.mem_ctrl.dram.rank0.writeEnergy       51761520                       # Energy for write commands per rank (pJ) (Joule)
system.mem_ctrl.dram.rank0.refreshEnergy 11037090480.000002                       # Energy for refresh commands per rank (pJ) (Joule)
system.mem_ctrl.dram.rank0.actBackEnergy   3123337230                       # Energy for active background per rank (pJ) (Joule)
system.mem_ctrl.dram.rank0.preBackEnergy  51062255520                       # Energy for precharge background per rank (pJ) (Joule)
system.mem_ctrl.dram.rank0.actPowerDownEnergy            0                       # Energy for active power-down per rank (pJ) (Joule)
system.mem_ctrl.dram.rank0.prePowerDownEnergy            0                       # Energy for precharge power-down per rank (pJ) (Joule)
system.mem_ctrl.dram.rank0.selfRefreshEnergy            0                       # Energy for self refresh per rank (pJ) (Joule)
system.mem_ctrl.dram.rank0.totalEnergy    65360363010                       # Total energy per rank (pJ) (Joule)
system.mem_ctrl.dram.rank0.averagePower    467.447227                       # Core power per rank (mW) (Watt)
system.mem_ctrl.dram.rank0.totalIdleTime            0                       # Total Idle time Per DRAM Rank (Tick)
system.mem_ctrl.dram.rank0.pwrStateTime::IDLE 132718012554                       # Time in different power states (Tick)
system.mem_ctrl.dram.rank0.pwrStateTime::REF   4668820000                       # Time in different power states (Tick)
system.mem_ctrl.dram.rank0.pwrStateTime::SREF            0                       # Time in different power states (Tick)
system.mem_ctrl.dram.rank0.pwrStateTime::PRE_PDN            0                       # Time in different power states (Tick)
system.mem_ctrl.dram.rank0.pwrStateTime::ACT   2437214494                       # Time in different power states (Tick)
system.mem_ctrl.dram.rank0.pwrStateTime::ACT_PDN            0                       # Time in different power states (Tick)
system.mem_ctrl.dram.rank1.actEnergy         27817440                       # Energy for activate commands per rank (pJ) (Joule)
system.mem_ctrl.dram.rank1.preEnergy         14773935                       # Energy for precharge commands per rank (pJ) (Joule)
system.mem_ctrl.dram.rank1.readEnergy        37592100                       # Energy for read commands per rank (pJ) (Joule)
system.mem_ctrl.dram.rank1.writeEnergy       53771220                       # Energy for write commands per rank (pJ) (Joule)
system.mem_ctrl.dram.rank1.refreshEnergy 11037090480.000002                       # Energy for refresh commands per rank (pJ) (Joule)
system.mem_ctrl.dram.rank1.actBackEnergy   2915543160                       # Energy for active background per rank (pJ) (Joule)
system.mem_ctrl.dram.rank1.preBackEnergy  51237240000                       # Energy for precharge background per rank (pJ) (Joule)
system.mem_ctrl.dram.rank1.actPowerDownEnergy            0                       # Energy for active power-down per rank (pJ) (Joule)
system.mem_ctrl.dram.rank1.prePowerDownEnergy            0                       # Energy for precharge power-down per rank (pJ) (Joule)
system.mem_ctrl.dram.rank1.selfRefreshEnergy            0                       # Energy for self refresh per rank (pJ) (Joule)
system.mem_ctrl.dram.rank1.totalEnergy    65323828335                       # Total energy per rank (pJ) (Joule)
system.mem_ctrl.dram.rank1.averagePower    467.185936                       # Core power per rank (mW) (Watt)
system.mem_ctrl.dram.rank1.totalIdleTime            0                       # Total Idle time Per DRAM Rank (Tick)
system.mem_ctrl.dram.rank1.pwrStateTime::IDLE 133174454856                       # Time in different power states (Tick)
system.mem_ctrl.dram.rank1.pwrStateTime::REF   4668820000                       # Time in different power states (Tick)
system.mem_ctrl.dram.rank1.pwrStateTime::SREF            0                       # Time in different power states (Tick)
system.mem_ctrl.dram.rank1.pwrStateTime::PRE_PDN            0                       # Time in different power states (Tick)
system.mem_ctrl.dram.rank1.pwrStateTime::ACT   1980772192                       # Time in different power states (Tick)
system.mem_ctrl.dram.rank1.pwrStateTime::ACT_PDN            0                       # Time in different power states (Tick)
system.mem_ctrl.power_state.pwrStateResidencyTicks::UNDEFINED 139824047048                       # Cumulative time (in ticks) in various power states (Tick)
system.membus.transDist::ReadResp                9106                       # Transaction distribution (Count)
system.membus.transDist::WritebackDirty         20239                       # Transaction distribution (Count)
system.membus.transDist::CleanEvict               765                       # Transaction distribution (Count)
system.membus.transDist::ReadExReq               1655                       # Transaction distribution (Count)
system.membus.transDist::ReadExResp              1655                       # Transaction distribution (Count)
system.membus.transDist::ReadSharedReq           9106                       # Transaction distribution (Count)
system.membus.transDist::InvalidateReq          28211                       # Transaction distribution (Count)
system.membus.pktCount_system.l3cache.mem_side_port::system.mem_ctrl.port        70737                       # Packet count per connected requestor and responder (Count)
system.membus.pktCount::total                   70737                       # Packet count per connected requestor and responder (Count)
system.membus.pktSize_system.l3cache.mem_side_port::system.mem_ctrl.port      1984000                       # Cumulative packet size per connected requestor and responder (Byte)
system.membus.pktSize::total                  1984000                       # Cumulative packet size per connected requestor and responder (Byte)
system.membus.snoops                                0                       # Total snoops (Count)
system.membus.snoopTraffic                          0                       # Total snoop traffic (Byte)
system.membus.snoopFanout::samples              38972                       # Request fanout histogram (Count)
system.membus.snoopFanout::mean                     0                       # Request fanout histogram (Count)
system.membus.snoopFanout::stdev                    0                       # Request fanout histogram (Count)
system.membus.snoopFanout::underflows               0      0.00%      0.00% # Request fanout histogram (Count)
system.membus.snoopFanout::0                    38972    100.00%    100.00% # Request fanout histogram (Count)
system.membus.snoopFanout::1                        0      0.00%    100.00% # Request fanout histogram (Count)
system.membus.snoopFanout::overflows                0      0.00%    100.00% # Request fanout histogram (Count)
system.membus.snoopFanout::min_value                0                       # Request fanout histogram (Count)
system.membus.snoopFanout::max_value                0                       # Request fanout histogram (Count)
system.membus.snoopFanout::total                38972                       # Request fanout histogram (Count)
system.membus.power_state.pwrStateResidencyTicks::UNDEFINED 139824047048                       # Cumulative time (in ticks) in various power states (Tick)
system.membus.reqLayer0.occupancy            67329798                       # Layer occupancy (ticks) (Tick)
system.membus.reqLayer0.utilization               0.0                       # Layer utilization (Ratio)
system.membus.respLayer0.occupancy           28290486                       # Layer occupancy (ticks) (Tick)
system.membus.respLayer0.utilization              0.0                       # Layer utilization (Ratio)
system.membus.snoop_filter.totRequests          60327                       # Total number of requests made to the snoop filter. (Count)
system.membus.snoop_filter.hitSingleRequests        21355                       # Number of requests hitting in the snoop filter with a single holder of the requested data. (Count)
system.membus.snoop_filter.hitMultiRequests            0                       # Number of requests hitting in the snoop filter with multiple (>1) holders of the requested data. (Count)
system.membus.snoop_filter.totSnoops                0                       # Total number of snoops made to the snoop filter. (Count)
system.membus.snoop_filter.hitSingleSnoops            0                       # Number of snoops hitting in the snoop filter with a single holder of the requested data. (Count)
system.membus.snoop_filter.hitMultiSnoops            0                       # Number of snoops hitting in the snoop filter with multiple (>1) holders of the requested data. (Count)
system.workload.inst.arm                            0                       # number of arm instructions executed (Count)
system.workload.inst.quiesce                        0                       # number of quiesce instructions executed (Count)

---------- End Simulation Statistics   ----------
